<?xml version="1.0" encoding="UTF-8"?>

<!-- generated on 2022-03-04 21:28:42 by Eclipse SUMO netconvert Version 1.12.0
<configuration xmlns:xsi="http://www.w3.org/2001/XMLSchema-instance" xsi:noNamespaceSchemaLocation="http://sumo.dlr.de/xsd/netconvertConfiguration.xsd">

    <input>
        <node-files value="nets/lucerne.nod.xml"/>
        <edge-files value="nets/lucerne.edg.xml"/>
    </input>

    <output>
        <output-file value="nets/lucerne.net.xml"/>
    </output>

    <report>
        <aggregate-warnings value="5"/>
    </report>

</configuration>
-->

<net version="1.9" junctionCornerDetail="5" limitTurnSpeed="5.50" xmlns:xsi="http://www.w3.org/2001/XMLSchema-instance" xsi:noNamespaceSchemaLocation="http://sumo.dlr.de/xsd/net_file.xsd">

    <location netOffset="0.00,1200.00" convBoundary="0.00,0.00,1200.00,1200.00" origBoundary="0.00,-1200.00,1200.00,0.00" projParameter="!"/>

    <edge id=":1_0" function="internal">
        <lane id=":1_0_0" index="0" disallow="pedestrian" speed="3.65" length="4.67" shape="701.43,1199.28 701.25,1200.72 700.72,1201.43 699.82,1201.43 698.57,1200.72"/>
    </edge>
    <edge id=":10_0" function="internal">
        <lane id=":10_0_0" index="0" disallow="pedestrian" speed="22.00" length="20.80" shape="395.20,410.40 395.20,389.60"/>
        <lane id=":10_0_1" index="1" disallow="pedestrian" speed="22.00" length="20.80" shape="398.40,410.40 398.40,389.60"/>
    </edge>
    <edge id=":10_2" function="internal">
        <lane id=":10_2_0" index="0" disallow="pedestrian" speed="9.26" length="6.01" shape="398.40,410.40 399.15,405.15 399.51,404.55"/>
    </edge>
    <edge id=":10_3" function="internal">
        <lane id=":10_3_0" index="0" disallow="pedestrian" speed="3.65" length="1.44" shape="398.40,410.40 399.20,409.20"/>
    </edge>
    <edge id=":10_10" function="internal">
        <lane id=":10_10_0" index="0" disallow="pedestrian" speed="9.26" length="13.35" shape="399.51,404.55 401.40,401.40 405.15,399.15 410.40,398.40"/>
    </edge>
    <edge id=":10_11" function="internal">
        <lane id=":10_11_0" index="0" disallow="pedestrian" speed="3.65" length="3.23" shape="399.20,409.20 400.00,408.80 400.80,409.20 401.60,410.40"/>
    </edge>
    <edge id=":10_4" function="internal">
        <lane id=":10_4_0" index="0" disallow="pedestrian" speed="7.33" length="11.73" shape="410.40,404.80 406.55,405.15 403.80,406.20 402.15,407.95 401.60,410.40"/>
    </edge>
    <edge id=":10_5" function="internal">
        <lane id=":10_5_0" index="0" disallow="pedestrian" speed="9.26" length="19.35" shape="410.40,401.60 405.15,400.85 401.40,398.60 399.15,394.85 398.40,389.60"/>
    </edge>
    <edge id=":10_6" function="internal">
        <lane id=":10_6_0" index="0" disallow="pedestrian" speed="3.65" length="2.34" shape="410.40,401.60 409.20,400.80 408.80,400.00"/>
    </edge>
    <edge id=":10_12" function="internal">
        <lane id=":10_12_0" index="0" disallow="pedestrian" speed="3.65" length="2.34" shape="408.80,400.00 409.20,399.20 410.40,398.40"/>
    </edge>
    <edge id=":10_7" function="internal">
        <lane id=":10_7_0" index="0" disallow="pedestrian" speed="6.51" length="9.03" shape="404.80,389.60 405.15,392.05 406.20,393.80 407.95,394.85 410.40,395.20"/>
    </edge>
    <edge id=":10_8" function="internal">
        <lane id=":10_8_0" index="0" disallow="pedestrian" speed="14.00" length="21.12" shape="404.80,389.60 404.30,395.88 403.20,400.20 402.10,404.41 401.60,410.40"/>
    </edge>
    <edge id=":10_9" function="internal">
        <lane id=":10_9_0" index="0" disallow="pedestrian" speed="3.65" length="1.44" shape="401.60,389.60 400.80,390.80"/>
    </edge>
    <edge id=":10_13" function="internal">
        <lane id=":10_13_0" index="0" disallow="pedestrian" speed="3.65" length="3.23" shape="400.80,390.80 400.00,391.20 399.20,390.80 398.40,389.60"/>
    </edge>
    <edge id=":11_0" function="internal">
        <lane id=":11_0_0" index="0" disallow="pedestrian" speed="22.00" length="15.60" shape="506.20,404.80 490.60,404.80"/>
        <lane id=":11_0_1" index="1" disallow="pedestrian" speed="22.00" length="15.60" shape="506.20,401.60 490.60,401.60"/>
    </edge>
    <edge id=":11_2" function="internal">
        <lane id=":11_2_0" index="0" disallow="pedestrian" speed="8.49" length="16.11" shape="506.20,401.60 502.79,400.85 500.35,398.60 498.89,394.85 498.40,389.60"/>
    </edge>
    <edge id=":11_3" function="internal">
        <lane id=":11_3_0" index="0" disallow="pedestrian" speed="3.65" length="2.34" shape="506.20,401.60 505.00,400.80 504.60,400.00"/>
    </edge>
    <edge id=":11_11" function="internal">
        <lane id=":11_11_0" index="0" disallow="pedestrian" speed="3.65" length="2.34" shape="504.60,400.00 505.00,399.20 506.20,398.40"/>
    </edge>
    <edge id=":11_4" function="internal">
        <lane id=":11_4_0" index="0" disallow="pedestrian" speed="6.25" length="8.24" shape="501.60,389.60 501.89,392.05 502.75,393.80 504.19,394.85 506.20,395.20"/>
    </edge>
    <edge id=":11_5" function="internal">
        <lane id=":11_5_0" index="0" disallow="pedestrian" speed="9.08" length="3.21" shape="501.60,389.60 501.18,392.78"/>
    </edge>
    <edge id=":11_6" function="internal">
        <lane id=":11_6_0" index="0" disallow="pedestrian" speed="3.65" length="1.44" shape="501.60,389.60 500.80,390.80"/>
    </edge>
    <edge id=":11_12" function="internal">
        <lane id=":11_12_0" index="0" disallow="pedestrian" speed="9.08" length="15.35" shape="501.18,392.78 500.91,394.85 498.85,398.60 495.41,400.85 490.60,401.60"/>
    </edge>
    <edge id=":11_13" function="internal">
        <lane id=":11_13_0" index="0" disallow="pedestrian" speed="3.65" length="3.23" shape="500.80,390.80 500.00,391.20 499.20,390.80 498.40,389.60"/>
    </edge>
    <edge id=":11_7" function="internal">
        <lane id=":11_7_0" index="0" disallow="pedestrian" speed="6.25" length="8.24" shape="490.60,395.20 492.61,394.85 494.05,393.80 494.91,392.05 495.20,389.60"/>
    </edge>
    <edge id=":11_8" function="internal">
        <lane id=":11_8_0" index="0" disallow="pedestrian" speed="22.00" length="15.60" shape="490.60,395.20 506.20,395.20"/>
        <lane id=":11_8_1" index="1" disallow="pedestrian" speed="22.00" length="15.60" shape="490.60,398.40 506.20,398.40"/>
    </edge>
    <edge id=":11_10" function="internal">
        <lane id=":11_10_0" index="0" disallow="pedestrian" speed="3.65" length="4.67" shape="490.60,398.40 491.80,399.20 492.20,400.00 491.80,400.80 490.60,401.60"/>
    </edge>
    <edge id=":12_0" function="internal">
        <lane id=":12_0_0" index="0" disallow="pedestrian" speed="8.49" length="10.40" shape="602.72,409.03 601.37,407.18 599.44,405.86 596.91,405.06 593.80,404.80"/>
    </edge>
    <edge id=":12_1" function="internal">
        <lane id=":12_1_0" index="0" disallow="pedestrian" speed="14.00" length="20.23" shape="602.72,409.03 600.17,403.64 598.89,399.71 598.45,395.58 598.40,389.60"/>
    </edge>
    <edge id=":12_2" function="internal">
        <lane id=":12_2_0" index="0" disallow="pedestrian" speed="3.65" length="1.44" shape="602.72,409.03 602.90,407.60"/>
    </edge>
    <edge id=":12_10" function="internal">
        <lane id=":12_10_0" index="0" disallow="pedestrian" speed="3.65" length="3.23" shape="602.90,407.60 603.44,406.88 604.33,406.88 605.59,407.60"/>
    </edge>
    <edge id=":12_3" function="internal">
        <lane id=":12_3_0" index="0" disallow="pedestrian" speed="14.00" length="17.99" shape="604.80,389.60 604.84,394.70 605.20,398.22 606.28,401.57 608.45,406.16"/>
        <lane id=":12_3_1" index="1" disallow="pedestrian" speed="14.00" length="17.99" shape="601.60,389.60 601.64,395.14 602.05,398.96 603.22,402.60 605.59,407.60"/>
    </edge>
    <edge id=":12_5" function="internal">
        <lane id=":12_5_0" index="0" disallow="pedestrian" speed="8.49" length="5.65" shape="601.60,389.60 601.11,394.85 600.98,395.20"/>
    </edge>
    <edge id=":12_6" function="internal">
        <lane id=":12_6_0" index="0" disallow="pedestrian" speed="3.65" length="1.44" shape="601.60,389.60 600.80,390.80"/>
    </edge>
    <edge id=":12_11" function="internal">
        <lane id=":12_11_0" index="0" disallow="pedestrian" speed="8.49" length="10.46" shape="600.98,395.20 599.65,398.60 597.21,400.85 593.80,401.60"/>
    </edge>
    <edge id=":12_12" function="internal">
        <lane id=":12_12_0" index="0" disallow="pedestrian" speed="3.65" length="3.23" shape="600.80,390.80 600.00,391.20 599.20,390.80 598.40,389.60"/>
    </edge>
    <edge id=":12_7" function="internal">
        <lane id=":12_7_0" index="0" disallow="pedestrian" speed="6.25" length="8.24" shape="593.80,395.20 595.81,394.85 597.25,393.80 598.11,392.05 598.40,389.60"/>
    </edge>
    <edge id=":12_8" function="internal">
        <lane id=":12_8_0" index="0" disallow="pedestrian" speed="10.34" length="15.75" shape="593.80,398.40 597.23,398.97 600.34,400.70 603.13,403.57 605.59,407.60"/>
    </edge>
    <edge id=":12_9" function="internal">
        <lane id=":12_9_0" index="0" disallow="pedestrian" speed="3.65" length="2.34" shape="593.80,398.40 595.00,399.20 595.40,400.00"/>
    </edge>
    <edge id=":12_13" function="internal">
        <lane id=":12_13_0" index="0" disallow="pedestrian" speed="3.65" length="2.34" shape="595.40,400.00 595.00,400.80 593.80,401.60"/>
    </edge>
    <edge id=":13_0" function="internal">
        <lane id=":13_0_0" index="0" disallow="pedestrian" speed="22.00" length="20.80" shape="395.20,310.40 395.20,289.60"/>
        <lane id=":13_0_1" index="1" disallow="pedestrian" speed="22.00" length="20.80" shape="398.40,310.40 398.40,289.60"/>
    </edge>
    <edge id=":13_2" function="internal">
        <lane id=":13_2_0" index="0" disallow="pedestrian" speed="9.08" length="18.55" shape="398.40,310.40 399.09,305.15 401.15,301.40 404.59,299.15 409.40,298.40"/>
    </edge>
    <edge id=":13_3" function="internal">
        <lane id=":13_3_0" index="0" disallow="pedestrian" speed="3.65" length="1.44" shape="398.40,310.40 399.20,309.20"/>
    </edge>
    <edge id=":13_12" function="internal">
        <lane id=":13_12_0" index="0" disallow="pedestrian" speed="3.65" length="3.23" shape="399.20,309.20 400.00,308.80 400.80,309.20 401.60,310.40"/>
    </edge>
    <edge id=":13_4" function="internal">
        <lane id=":13_4_0" index="0" disallow="pedestrian" speed="6.25" length="8.24" shape="409.40,304.80 407.39,305.15 405.95,306.20 405.09,307.95 404.80,310.40"/>
        <lane id=":13_4_1" index="1" disallow="pedestrian" speed="7.79" length="13.40" shape="409.40,301.60 405.99,302.15 403.55,303.80 402.09,306.55 401.60,310.40"/>
    </edge>
    <edge id=":13_6" function="internal">
        <lane id=":13_6_0" index="0" disallow="pedestrian" speed="9.08" length="2.32" shape="409.40,301.60 407.11,301.24"/>
    </edge>
    <edge id=":13_7" function="internal">
        <lane id=":13_7_0" index="0" disallow="pedestrian" speed="3.65" length="1.29" shape="409.40,301.60 408.32,300.88"/>
    </edge>
    <edge id=":13_13" function="internal">
        <lane id=":13_13_0" index="0" disallow="pedestrian" speed="9.08" length="16.24" shape="407.11,301.24 404.59,300.85 401.15,298.60 399.09,294.85 398.40,289.60"/>
    </edge>
    <edge id=":13_14" function="internal">
        <lane id=":13_14_0" index="0" disallow="pedestrian" speed="3.65" length="3.38" shape="408.32,300.88 408.20,300.80 407.80,300.00 408.20,299.20 409.40,298.40"/>
    </edge>
    <edge id=":13_8" function="internal">
        <lane id=":13_8_0" index="0" disallow="pedestrian" speed="6.25" length="8.24" shape="404.80,289.60 405.09,292.05 405.95,293.80 407.39,294.85 409.40,295.20"/>
        <lane id=":13_8_1" index="1" disallow="pedestrian" speed="7.79" length="13.40" shape="401.60,289.60 402.09,293.45 403.55,296.20 405.99,297.85 409.40,298.40"/>
    </edge>
    <edge id=":13_10" function="internal">
        <lane id=":13_10_0" index="0" disallow="pedestrian" speed="14.00" length="20.80" shape="401.60,289.60 401.60,310.40"/>
    </edge>
    <edge id=":13_11" function="internal">
        <lane id=":13_11_0" index="0" disallow="pedestrian" speed="3.65" length="4.67" shape="401.60,289.60 400.80,290.80 400.00,291.20 399.20,290.80 398.40,289.60"/>
    </edge>
    <edge id=":14_0" function="internal">
        <lane id=":14_0_0" index="0" disallow="pedestrian" speed="6.25" length="8.24" shape="495.20,310.40 494.91,307.95 494.05,306.20 492.61,305.15 490.60,304.80"/>
    </edge>
    <edge id=":14_1" function="internal">
        <lane id=":14_1_0" index="0" disallow="pedestrian" speed="14.00" length="20.80" shape="495.20,310.40 495.20,289.60"/>
        <lane id=":14_1_1" index="1" disallow="pedestrian" speed="14.00" length="20.80" shape="498.40,310.40 498.40,289.60"/>
    </edge>
    <edge id=":14_3" function="internal">
        <lane id=":14_3_0" index="0" disallow="pedestrian" speed="8.49" length="16.11" shape="498.40,310.40 498.89,305.15 500.35,301.40 502.79,299.15 506.20,298.40"/>
    </edge>
    <edge id=":14_4" function="internal">
        <lane id=":14_4_0" index="0" disallow="pedestrian" speed="3.65" length="4.67" shape="498.40,310.40 499.20,309.20 500.00,308.80 500.80,309.20 501.60,310.40"/>
    </edge>
    <edge id=":14_5" function="internal">
        <lane id=":14_5_0" index="0" disallow="pedestrian" speed="6.25" length="8.24" shape="506.20,304.80 504.19,305.15 502.75,306.20 501.89,307.95 501.60,310.40"/>
    </edge>
    <edge id=":14_6" function="internal">
        <lane id=":14_6_0" index="0" disallow="pedestrian" speed="35.00" length="15.60" shape="506.20,304.80 490.60,304.80"/>
        <lane id=":14_6_1" index="1" disallow="pedestrian" speed="35.00" length="15.60" shape="506.20,301.60 490.60,301.60"/>
    </edge>
    <edge id=":14_8" function="internal">
        <lane id=":14_8_0" index="0" disallow="pedestrian" speed="8.49" length="3.28" shape="506.20,301.60 502.99,300.89"/>
    </edge>
    <edge id=":14_9" function="internal">
        <lane id=":14_9_0" index="0" disallow="pedestrian" speed="3.65" length="1.44" shape="506.20,301.60 505.00,300.80"/>
    </edge>
    <edge id=":14_19" function="internal">
        <lane id=":14_19_0" index="0" disallow="pedestrian" speed="8.49" length="12.82" shape="502.99,300.89 502.79,300.85 500.35,298.60 498.89,294.85 498.40,289.60"/>
    </edge>
    <edge id=":14_20" function="internal">
        <lane id=":14_20_0" index="0" disallow="pedestrian" speed="3.65" length="3.23" shape="505.00,300.80 504.60,300.00 505.00,299.20 506.20,298.40"/>
    </edge>
    <edge id=":14_10" function="internal">
        <lane id=":14_10_0" index="0" disallow="pedestrian" speed="6.25" length="8.24" shape="501.60,289.60 501.89,292.05 502.75,293.80 504.19,294.85 506.20,295.20"/>
    </edge>
    <edge id=":14_11" function="internal">
        <lane id=":14_11_0" index="0" disallow="pedestrian" speed="14.00" length="20.80" shape="501.60,289.60 501.60,310.40"/>
    </edge>
    <edge id=":14_12" function="internal">
        <lane id=":14_12_0" index="0" disallow="pedestrian" speed="9.08" length="18.55" shape="501.60,289.60 500.91,294.85 498.85,298.60 495.41,300.85 490.60,301.60"/>
    </edge>
    <edge id=":14_13" function="internal">
        <lane id=":14_13_0" index="0" disallow="pedestrian" speed="3.65" length="4.67" shape="501.60,289.60 500.80,290.80 500.00,291.20 499.20,290.80 498.40,289.60"/>
    </edge>
    <edge id=":14_14" function="internal">
        <lane id=":14_14_0" index="0" disallow="pedestrian" speed="6.25" length="8.24" shape="490.60,295.20 492.61,294.85 494.05,293.80 494.91,292.05 495.20,289.60"/>
    </edge>
    <edge id=":14_15" function="internal">
        <lane id=":14_15_0" index="0" disallow="pedestrian" speed="22.00" length="15.60" shape="490.60,295.20 506.20,295.20"/>
        <lane id=":14_15_1" index="1" disallow="pedestrian" speed="22.00" length="15.60" shape="490.60,298.40 506.20,298.40"/>
    </edge>
    <edge id=":14_17" function="internal">
        <lane id=":14_17_0" index="0" disallow="pedestrian" speed="9.08" length="4.62" shape="490.60,298.40 495.16,299.11"/>
    </edge>
    <edge id=":14_18" function="internal">
        <lane id=":14_18_0" index="0" disallow="pedestrian" speed="3.65" length="1.44" shape="490.60,298.40 491.80,299.20"/>
    </edge>
    <edge id=":14_21" function="internal">
        <lane id=":14_21_0" index="0" disallow="pedestrian" speed="9.08" length="13.94" shape="495.16,299.11 495.41,299.15 498.85,301.40 500.91,305.15 501.60,310.40"/>
    </edge>
    <edge id=":14_22" function="internal">
        <lane id=":14_22_0" index="0" disallow="pedestrian" speed="3.65" length="3.23" shape="491.80,299.20 492.20,300.00 491.80,300.80 490.60,301.60"/>
    </edge>
    <edge id=":15_0" function="internal">
        <lane id=":15_0_0" index="0" disallow="pedestrian" speed="6.25" length="8.24" shape="598.40,310.40 598.11,307.95 597.25,306.20 595.81,305.15 593.80,304.80"/>
    </edge>
    <edge id=":15_1" function="internal">
        <lane id=":15_1_0" index="0" disallow="pedestrian" speed="14.00" length="19.80" shape="598.40,310.40 598.40,290.60"/>
    </edge>
    <edge id=":15_2" function="internal">
        <lane id=":15_2_0" index="0" disallow="pedestrian" speed="3.65" length="4.67" shape="598.40,310.40 599.20,309.20 600.00,308.80 600.80,309.20 601.60,310.40"/>
    </edge>
    <edge id=":15_3" function="internal">
        <lane id=":15_3_0" index="0" disallow="pedestrian" speed="14.00" length="19.80" shape="604.80,290.60 604.80,310.40"/>
        <lane id=":15_3_1" index="1" disallow="pedestrian" speed="14.00" length="19.80" shape="601.60,290.60 601.60,310.40"/>
    </edge>
    <edge id=":15_5" function="internal">
        <lane id=":15_5_0" index="0" disallow="pedestrian" speed="8.27" length="15.25" shape="601.60,290.60 601.11,295.41 599.65,298.85 597.21,300.91 593.80,301.60"/>
    </edge>
    <edge id=":15_6" function="internal">
        <lane id=":15_6_0" index="0" disallow="pedestrian" speed="3.65" length="1.44" shape="601.60,290.60 600.80,291.80"/>
    </edge>
    <edge id=":15_10" function="internal">
        <lane id=":15_10_0" index="0" disallow="pedestrian" speed="3.65" length="3.23" shape="600.80,291.80 600.00,292.20 599.20,291.80 598.40,290.60"/>
    </edge>
    <edge id=":15_7" function="internal">
        <lane id=":15_7_0" index="0" disallow="pedestrian" speed="5.96" length="7.42" shape="593.80,295.20 595.81,294.91 597.25,294.05 598.11,292.61 598.40,290.60"/>
    </edge>
    <edge id=":15_8" function="internal">
        <lane id=":15_8_0" index="0" disallow="pedestrian" speed="8.49" length="1.77" shape="593.80,298.40 595.53,298.78"/>
    </edge>
    <edge id=":15_9" function="internal">
        <lane id=":15_9_0" index="0" disallow="pedestrian" speed="3.65" length="1.25" shape="593.80,298.40 594.84,299.10"/>
    </edge>
    <edge id=":15_11" function="internal">
        <lane id=":15_11_0" index="0" disallow="pedestrian" speed="8.49" length="14.34" shape="595.53,298.78 597.21,299.15 599.65,301.40 601.11,305.15 601.60,310.40"/>
    </edge>
    <edge id=":15_12" function="internal">
        <lane id=":15_12_0" index="0" disallow="pedestrian" speed="3.65" length="3.42" shape="594.84,299.10 595.00,299.20 595.40,300.00 595.00,300.80 593.80,301.60"/>
    </edge>
    <edge id=":16_0" function="internal">
        <lane id=":16_0_0" index="0" disallow="pedestrian" speed="8.35" length="10.04" shape="395.20,210.40 395.00,207.05 394.39,204.42 393.39,202.52 391.97,201.35"/>
        <lane id=":16_0_1" index="1" disallow="pedestrian" speed="9.63" length="13.56" shape="398.40,210.40 398.09,206.13 397.15,202.72 395.59,200.17 393.40,198.49"/>
    </edge>
    <edge id=":16_2" function="internal">
        <lane id=":16_2_0" index="0" disallow="pedestrian" speed="9.08" length="18.55" shape="398.40,210.40 399.09,205.15 401.15,201.40 404.59,199.15 409.40,198.40"/>
    </edge>
    <edge id=":16_3" function="internal">
        <lane id=":16_3_0" index="0" disallow="pedestrian" speed="3.65" length="2.34" shape="398.40,210.40 399.20,209.20 400.00,208.80"/>
    </edge>
    <edge id=":16_12" function="internal">
        <lane id=":16_12_0" index="0" disallow="pedestrian" speed="3.65" length="2.34" shape="400.00,208.80 400.80,209.20 401.60,210.40"/>
    </edge>
    <edge id=":16_4" function="internal">
        <lane id=":16_4_0" index="0" disallow="pedestrian" speed="6.25" length="8.24" shape="409.40,204.80 407.39,205.15 405.95,206.20 405.09,207.95 404.80,210.40"/>
    </edge>
    <edge id=":16_5" function="internal">
        <lane id=":16_5_0" index="0" disallow="pedestrian" speed="22.00" length="17.31" shape="409.40,204.80 404.05,204.82 400.34,204.57 396.80,203.57 391.97,201.35"/>
        <lane id=":16_5_1" index="1" disallow="pedestrian" speed="21.35" length="17.31" shape="409.40,201.60 404.49,201.63 401.08,201.41 397.83,200.51 393.40,198.49"/>
    </edge>
    <edge id=":16_7" function="internal">
        <lane id=":16_7_0" index="0" disallow="pedestrian" speed="3.65" length="1.44" shape="409.40,201.60 408.20,200.80"/>
    </edge>
    <edge id=":16_13" function="internal">
        <lane id=":16_13_0" index="0" disallow="pedestrian" speed="3.65" length="3.23" shape="408.20,200.80 407.80,200.00 408.20,199.20 409.40,198.40"/>
    </edge>
    <edge id=":16_8" function="internal">
        <lane id=":16_8_0" index="0" disallow="pedestrian" speed="14.00" length="14.32" shape="396.27,192.77 399.90,194.41 402.57,195.10 405.37,195.24 409.40,195.20"/>
        <lane id=":16_8_1" index="1" disallow="pedestrian" speed="14.00" length="14.32" shape="394.84,195.63 398.87,197.46 401.82,198.26 404.93,198.43 409.40,198.40"/>
    </edge>
    <edge id=":16_10" function="internal">
        <lane id=":16_10_0" index="0" disallow="pedestrian" speed="10.76" length="3.46" shape="394.84,195.63 397.62,197.69"/>
    </edge>
    <edge id=":16_11" function="internal">
        <lane id=":16_11_0" index="0" disallow="pedestrian" speed="3.65" length="1.44" shape="394.84,195.63 395.55,196.88"/>
    </edge>
    <edge id=":16_14" function="internal">
        <lane id=":16_14_0" index="0" disallow="pedestrian" speed="10.76" length="13.64" shape="397.62,197.69 397.80,197.82 399.91,201.01 401.18,205.21 401.60,210.40"/>
    </edge>
    <edge id=":16_15" function="internal">
        <lane id=":16_15_0" index="0" disallow="pedestrian" speed="3.65" length="3.23" shape="395.55,196.88 395.55,197.78 394.84,198.31 393.40,198.49"/>
    </edge>
    <edge id=":17_0" function="internal">
        <lane id=":17_0_0" index="0" disallow="pedestrian" speed="6.25" length="8.24" shape="495.20,210.40 494.91,207.95 494.05,206.20 492.61,205.15 490.60,204.80"/>
    </edge>
    <edge id=":17_1" function="internal">
        <lane id=":17_1_0" index="0" disallow="pedestrian" speed="8.49" length="16.11" shape="498.40,210.40 498.89,205.15 500.35,201.40 502.79,199.15 506.20,198.40"/>
    </edge>
    <edge id=":17_2" function="internal">
        <lane id=":17_2_0" index="0" disallow="pedestrian" speed="3.65" length="4.67" shape="498.40,210.40 499.20,209.20 500.00,208.80 500.80,209.20 501.60,210.40"/>
    </edge>
    <edge id=":17_3" function="internal">
        <lane id=":17_3_0" index="0" disallow="pedestrian" speed="6.25" length="8.24" shape="506.20,204.80 504.19,205.15 502.75,206.20 501.89,207.95 501.60,210.40"/>
    </edge>
    <edge id=":17_4" function="internal">
        <lane id=":17_4_0" index="0" disallow="pedestrian" speed="22.00" length="15.60" shape="506.20,204.80 490.60,204.80"/>
        <lane id=":17_4_1" index="1" disallow="pedestrian" speed="22.00" length="15.60" shape="506.20,201.60 490.60,201.60"/>
    </edge>
    <edge id=":17_6" function="internal">
        <lane id=":17_6_0" index="0" disallow="pedestrian" speed="3.65" length="1.44" shape="506.20,201.60 505.00,200.80"/>
    </edge>
    <edge id=":17_11" function="internal">
        <lane id=":17_11_0" index="0" disallow="pedestrian" speed="3.65" length="3.23" shape="505.00,200.80 504.60,200.00 505.00,199.20 506.20,198.40"/>
    </edge>
    <edge id=":17_7" function="internal">
        <lane id=":17_7_0" index="0" disallow="pedestrian" speed="22.00" length="15.60" shape="490.60,195.20 506.20,195.20"/>
        <lane id=":17_7_1" index="1" disallow="pedestrian" speed="22.00" length="15.60" shape="490.60,198.40 506.20,198.40"/>
    </edge>
    <edge id=":17_9" function="internal">
        <lane id=":17_9_0" index="0" disallow="pedestrian" speed="9.08" length="4.62" shape="490.60,198.40 495.16,199.11"/>
    </edge>
    <edge id=":17_10" function="internal">
        <lane id=":17_10_0" index="0" disallow="pedestrian" speed="3.65" length="1.44" shape="490.60,198.40 491.80,199.20"/>
    </edge>
    <edge id=":17_12" function="internal">
        <lane id=":17_12_0" index="0" disallow="pedestrian" speed="9.08" length="13.94" shape="495.16,199.11 495.41,199.15 498.85,201.40 500.91,205.15 501.60,210.40"/>
    </edge>
    <edge id=":17_13" function="internal">
        <lane id=":17_13_0" index="0" disallow="pedestrian" speed="3.65" length="3.23" shape="491.80,199.20 492.20,200.00 491.80,200.80 490.60,201.60"/>
    </edge>
    <edge id=":18_0" function="internal">
        <lane id=":18_0_0" index="0" disallow="pedestrian" speed="6.51" length="9.03" shape="598.40,210.40 598.05,207.95 597.00,206.20 595.25,205.15 592.80,204.80"/>
    </edge>
    <edge id=":18_1" function="internal">
        <lane id=":18_1_0" index="0" disallow="pedestrian" speed="13.64" length="17.30" shape="598.40,210.40 598.72,205.24 599.66,200.84 601.24,197.19 603.45,194.29"/>
    </edge>
    <edge id=":18_2" function="internal">
        <lane id=":18_2_0" index="0" disallow="pedestrian" speed="3.65" length="1.44" shape="598.40,210.40 599.20,209.20"/>
    </edge>
    <edge id=":18_11" function="internal">
        <lane id=":18_11_0" index="0" disallow="pedestrian" speed="3.65" length="3.23" shape="599.20,209.20 600.00,208.80 600.80,209.20 601.60,210.40"/>
    </edge>
    <edge id=":18_3" function="internal">
        <lane id=":18_3_0" index="0" disallow="pedestrian" speed="11.55" length="12.28" shape="607.98,198.81 606.59,200.73 605.59,203.30 605.00,206.52 604.80,210.40"/>
        <lane id=":18_3_1" index="1" disallow="pedestrian" speed="12.64" length="14.79" shape="605.71,196.55 603.91,198.96 602.63,202.07 601.86,205.88 601.60,210.40"/>
    </edge>
    <edge id=":18_5" function="internal">
        <lane id=":18_5_0" index="0" disallow="pedestrian" speed="12.40" length="14.23" shape="605.71,196.55 603.01,198.76 599.96,200.34 596.56,201.28 592.80,201.60"/>
    </edge>
    <edge id=":18_6" function="internal">
        <lane id=":18_6_0" index="0" disallow="pedestrian" speed="3.65" length="1.44" shape="605.71,196.55 604.30,196.83"/>
    </edge>
    <edge id=":18_12" function="internal">
        <lane id=":18_12_0" index="0" disallow="pedestrian" speed="3.65" length="3.23" shape="604.30,196.83 603.45,196.55 603.17,195.70 603.45,194.29"/>
    </edge>
    <edge id=":18_7" function="internal">
        <lane id=":18_7_0" index="0" disallow="pedestrian" speed="10.05" length="9.20" shape="592.80,195.20 595.28,195.00 597.50,194.41 599.47,193.41 601.19,192.02"/>
        <lane id=":18_7_1" index="1" disallow="pedestrian" speed="11.29" length="11.71" shape="592.80,198.40 595.92,198.14 598.73,197.37 601.24,196.09 603.45,194.29"/>
    </edge>
    <edge id=":18_9" function="internal">
        <lane id=":18_9_0" index="0" disallow="pedestrian" speed="8.67" length="2.65" shape="592.80,198.40 595.40,198.91"/>
    </edge>
    <edge id=":18_10" function="internal">
        <lane id=":18_10_0" index="0" disallow="pedestrian" speed="3.65" length="1.44" shape="592.80,198.40 594.00,199.20"/>
    </edge>
    <edge id=":18_13" function="internal">
        <lane id=":18_13_0" index="0" disallow="pedestrian" speed="8.67" length="14.20" shape="595.40,198.91 596.65,199.15 599.40,201.40 601.05,205.15 601.60,210.40"/>
    </edge>
    <edge id=":18_14" function="internal">
        <lane id=":18_14_0" index="0" disallow="pedestrian" speed="3.65" length="3.23" shape="594.00,199.20 594.40,200.00 594.00,200.80 592.80,201.60"/>
    </edge>
    <edge id=":19_0" function="internal">
        <lane id=":19_0_0" index="0" disallow="pedestrian" speed="3.65" length="4.67" shape="-0.72,1.43 -1.43,0.18 -1.43,-0.72 -0.72,-1.25 0.72,-1.43"/>
    </edge>
    <edge id=":2_0" function="internal">
        <lane id=":2_0_0" index="0" disallow="pedestrian" speed="3.65" length="4.67" shape="201.33,1100.89 200.00,1101.44 199.11,1101.33 198.67,1100.55 198.67,1099.11"/>
    </edge>
    <edge id=":20_0" function="internal">
        <lane id=":20_0_0" index="0" disallow="pedestrian" speed="3.65" length="4.67" shape="798.87,-1.13 800.28,-1.41 801.13,-1.13 801.41,-0.28 801.13,1.13"/>
    </edge>
    <edge id=":3_0" function="internal">
        <lane id=":3_0_0" index="0" disallow="pedestrian" speed="3.65" length="4.67" shape="1001.13,998.87 1001.41,1000.28 1001.13,1001.13 1000.28,1001.41 998.87,1001.13"/>
    </edge>
    <edge id=":4_0" function="internal">
        <lane id=":4_0_0" index="0" disallow="pedestrian" speed="3.65" length="4.67" shape="0.00,801.60 -1.20,800.80 -1.60,800.00 -1.20,799.20 0.00,798.40"/>
    </edge>
    <edge id=":5_0" function="internal">
        <lane id=":5_0_0" index="0" disallow="pedestrian" speed="12.65" length="20.40" shape="409.40,804.80 405.89,805.59 402.18,807.95 398.28,811.88 394.18,817.39"/>
    </edge>
    <edge id=":5_1" function="internal">
        <lane id=":5_1_0" index="0" disallow="pedestrian" speed="22.00" length="27.10" shape="409.40,804.80 382.30,804.80"/>
        <lane id=":5_1_1" index="1" disallow="pedestrian" speed="22.00" length="27.10" shape="409.40,801.60 382.30,801.60"/>
    </edge>
    <edge id=":5_3" function="internal">
        <lane id=":5_3_0" index="0" disallow="pedestrian" speed="9.08" length="4.62" shape="409.40,801.60 404.84,800.89"/>
    </edge>
    <edge id=":5_4" function="internal">