<?xml version="1.0" encoding="UTF-8"?>

<!-- generated on 2022-03-04 17:48:00 by Eclipse SUMO netconvert Version 1.12.0
<configuration xmlns:xsi="http://www.w3.org/2001/XMLSchema-instance" xsi:noNamespaceSchemaLocation="http://sumo.dlr.de/xsd/netconvertConfiguration.xsd">

    <input>
        <node-files value="lucerne.nod.xml"/>
        <edge-files value="lucerne.edg.xml"/>
    </input>

    <output>
        <output-file value="lucerne.net.xml"/>
    </output>

    <report>
        <aggregate-warnings value="5"/>
    </report>

</configuration>
-->

<net version="1.9" junctionCornerDetail="5" limitTurnSpeed="5.50" xmlns:xsi="http://www.w3.org/2001/XMLSchema-instance" xsi:noNamespaceSchemaLocation="http://sumo.dlr.de/xsd/net_file.xsd">

    <location netOffset="0.00,1200.00" convBoundary="0.00,0.00,1200.00,1200.00" origBoundary="0.00,-1200.00,1200.00,0.00" projParameter="!"/>

    <edge id=":1_0" function="internal">
        <lane id=":1_0_0" index="0" speed="3.65" length="4.67" shape="701.43,1199.28 701.25,1200.72 700.72,1201.43 699.82,1201.43 698.57,1200.72"/>
    </edge>
    <edge id=":10_0" function="internal">
        <lane id=":10_0_0" index="0" disallow="pedestrian" speed="14.00" length="20.80" shape="395.20,410.40 395.20,389.60"/>
        <lane id=":10_0_1" index="1" disallow="pedestrian" speed="14.00" length="20.80" shape="398.40,410.40 398.40,389.60"/>
    </edge>
    <edge id=":10_2" function="internal">
        <lane id=":10_2_0" index="0" disallow="pedestrian" speed="9.26" length="5.01" shape="398.40,410.40 399.11,405.44"/>
    </edge>
    <edge id=":10_3" function="internal">
        <lane id=":10_3_0" index="0" disallow="pedestrian" speed="3.65" length="1.44" shape="398.40,410.40 399.20,409.20"/>
    </edge>
    <edge id=":10_12" function="internal">
        <lane id=":10_12_0" index="0" disallow="pedestrian" speed="9.26" length="14.34" shape="399.11,405.44 399.15,405.15 401.40,401.40 405.15,399.15 410.40,398.40"/>
    </edge>
    <edge id=":10_13" function="internal">
        <lane id=":10_13_0" index="0" disallow="pedestrian" speed="3.65" length="3.23" shape="399.20,409.20 400.00,408.80 400.80,409.20 401.60,410.40"/>
    </edge>
    <edge id=":10_4" function="internal">
        <lane id=":10_4_0" index="0" disallow="pedestrian" speed="6.51" length="9.03" shape="410.40,404.80 407.95,405.15 406.20,406.20 405.15,407.95 404.80,410.40"/>
        <lane id=":10_4_1" index="1" disallow="pedestrian" speed="8.00" length="14.19" shape="410.40,401.60 406.55,402.15 403.80,403.80 402.15,406.55 401.60,410.40"/>
    </edge>
    <edge id=":10_6" function="internal">
        <lane id=":10_6_0" index="0" disallow="pedestrian" speed="9.26" length="19.35" shape="410.40,401.60 405.15,400.85 401.40,398.60 399.15,394.85 398.40,389.60"/>
    </edge>
    <edge id=":10_7" function="internal">
        <lane id=":10_7_0" index="0" disallow="pedestrian" speed="3.65" length="2.34" shape="410.40,401.60 409.20,400.80 408.80,400.00"/>
    </edge>
    <edge id=":10_14" function="internal">
        <lane id=":10_14_0" index="0" disallow="pedestrian" speed="3.65" length="2.34" shape="408.80,400.00 409.20,399.20 410.40,398.40"/>
    </edge>
    <edge id=":10_8" function="internal">
        <lane id=":10_8_0" index="0" disallow="pedestrian" speed="6.51" length="9.03" shape="404.80,389.60 405.15,392.05 406.20,393.80 407.95,394.85 410.40,395.20"/>
    </edge>
    <edge id=":10_9" function="internal">
        <lane id=":10_9_0" index="0" disallow="pedestrian" speed="14.00" length="20.80" shape="404.80,389.60 404.80,410.40"/>
        <lane id=":10_9_1" index="1" disallow="pedestrian" speed="14.00" length="20.80" shape="401.60,389.60 401.60,410.40"/>
    </edge>
    <edge id=":10_11" function="internal">
        <lane id=":10_11_0" index="0" disallow="pedestrian" speed="3.65" length="1.44" shape="401.60,389.60 400.80,390.80"/>
    </edge>
    <edge id=":10_15" function="internal">
        <lane id=":10_15_0" index="0" disallow="pedestrian" speed="3.65" length="3.23" shape="400.80,390.80 400.00,391.20 399.20,390.80 398.40,389.60"/>
    </edge>
    <edge id=":11_0" function="internal">
        <lane id=":11_0_0" index="0" disallow="pedestrian" speed="14.00" length="14.40" shape="507.20,404.80 492.80,404.80"/>
        <lane id=":11_0_1" index="1" disallow="pedestrian" speed="14.00" length="14.40" shape="507.20,401.60 492.80,401.60"/>
    </edge>
    <edge id=":11_2" function="internal">
        <lane id=":11_2_0" index="0" disallow="pedestrian" speed="8.67" length="3.71" shape="507.20,401.60 503.56,400.89"/>
    </edge>
    <edge id=":11_3" function="internal">
        <lane id=":11_3_0" index="0" disallow="pedestrian" speed="3.65" length="1.44" shape="507.20,401.60 506.00,400.80"/>
    </edge>
    <edge id=":11_11" function="internal">
        <lane id=":11_11_0" index="0" disallow="pedestrian" speed="8.67" length="13.14" shape="503.56,400.89 503.35,400.85 500.60,398.60 498.95,394.85 498.40,389.60"/>
    </edge>
    <edge id=":11_12" function="internal">
        <lane id=":11_12_0" index="0" disallow="pedestrian" speed="3.65" length="3.23" shape="506.00,400.80 505.60,400.00 506.00,399.20 507.20,398.40"/>
    </edge>
    <edge id=":11_4" function="internal">
        <lane id=":11_4_0" index="0" disallow="pedestrian" speed="6.51" length="9.03" shape="501.60,389.60 501.95,392.05 503.00,393.80 504.75,394.85 507.20,395.20"/>
    </edge>
    <edge id=":11_5" function="internal">
        <lane id=":11_5_0" index="0" disallow="pedestrian" speed="8.67" length="16.85" shape="501.60,389.60 501.05,394.85 499.40,398.60 496.65,400.85 492.80,401.60"/>
    </edge>
    <edge id=":11_6" function="internal">
        <lane id=":11_6_0" index="0" disallow="pedestrian" speed="3.65" length="4.67" shape="501.60,389.60 500.80,390.80 500.00,391.20 499.20,390.80 498.40,389.60"/>
    </edge>
    <edge id=":11_7" function="internal">
        <lane id=":11_7_0" index="0" disallow="pedestrian" speed="6.51" length="9.03" shape="492.80,395.20 495.25,394.85 497.00,393.80 498.05,392.05 498.40,389.60"/>
    </edge>
    <edge id=":11_8" function="internal">
        <lane id=":11_8_0" index="0" disallow="pedestrian" speed="14.00" length="14.40" shape="492.80,395.20 507.20,395.20"/>
        <lane id=":11_8_1" index="1" disallow="pedestrian" speed="14.00" length="14.40" shape="492.80,398.40 507.20,398.40"/>
    </edge>
    <edge id=":11_10" function="internal">
        <lane id=":11_10_0" index="0" disallow="pedestrian" speed="3.65" length="1.44" shape="492.80,398.40 494.00,399.20"/>
    </edge>
    <edge id=":11_13" function="internal">
        <lane id=":11_13_0" index="0" disallow="pedestrian" speed="3.65" length="3.23" shape="494.00,399.20 494.40,400.00 494.00,400.80 492.80,401.60"/>
    </edge>
    <edge id=":12_0" function="internal">
        <lane id=":12_0_0" index="0" disallow="pedestrian" speed="8.67" length="10.88" shape="599.09,408.92 597.73,407.12 595.69,405.83 592.98,405.06 589.60,404.80"/>
    </edge>
    <edge id=":12_1" function="internal">
        <lane id=":12_1_0" index="0" disallow="pedestrian" speed="14.00" length="19.29" shape="599.09,408.92 596.63,403.57 595.49,399.65 595.19,395.54 595.20,389.60"/>
        <lane id=":12_1_1" index="1" disallow="pedestrian" speed="14.00" length="19.29" shape="601.96,407.49 599.68,402.54 598.65,398.91 598.38,395.10 598.40,389.60"/>
    </edge>
    <edge id=":12_3" function="internal">
        <lane id=":12_3_0" index="0" disallow="pedestrian" speed="3.65" length="1.44" shape="601.96,407.49 602.13,406.06"/>
    </edge>
    <edge id=":12_11" function="internal">
        <lane id=":12_11_0" index="0" disallow="pedestrian" speed="3.65" length="3.23" shape="602.13,406.06 602.67,405.34 603.57,405.34 604.82,406.06"/>
    </edge>
    <edge id=":12_4" function="internal">
        <lane id=":12_4_0" index="0" disallow="pedestrian" speed="14.00" length="16.30" shape="604.80,389.60 604.77,394.21 604.96,397.42 605.79,400.47 607.68,404.63"/>
        <lane id=":12_4_1" index="1" disallow="pedestrian" speed="14.00" length="16.30" shape="601.60,389.60 601.58,394.65 601.80,398.16 602.73,401.50 604.82,406.06"/>
    </edge>
    <edge id=":12_6" function="internal">
        <lane id=":12_6_0" index="0" disallow="pedestrian" speed="9.26" length="5.12" shape="601.60,389.60 600.88,394.67"/>
    </edge>
    <edge id=":12_7" function="internal">
        <lane id=":12_7_0" index="0" disallow="pedestrian" speed="3.65" length="1.44" shape="601.60,389.60 600.80,390.80"/>
    </edge>
    <edge id=":12_12" function="internal">
        <lane id=":12_12_0" index="0" disallow="pedestrian" speed="9.26" length="14.23" shape="600.88,394.67 600.85,394.85 598.60,398.60 594.85,400.85 589.60,401.60"/>
    </edge>
    <edge id=":12_13" function="internal">
        <lane id=":12_13_0" index="0" disallow="pedestrian" speed="3.65" length="3.23" shape="600.80,390.80 600.00,391.20 599.20,390.80 598.40,389.60"/>
    </edge>
    <edge id=":12_8" function="internal">
        <lane id=":12_8_0" index="0" disallow="pedestrian" speed="6.51" length="9.03" shape="589.60,395.20 592.05,394.85 593.80,393.80 594.85,392.05 595.20,389.60"/>
    </edge>
    <edge id=":12_9" function="internal">
        <lane id=":12_9_0" index="0" disallow="pedestrian" speed="11.01" length="17.97" shape="589.60,398.40 594.82,398.88 599.10,400.31 602.43,402.71 604.82,406.06"/>
    </edge>
    <edge id=":12_10" function="internal">
        <lane id=":12_10_0" index="0" disallow="pedestrian" speed="3.65" length="2.34" shape="589.60,398.40 590.80,399.20 591.20,400.00"/>
    </edge>
    <edge id=":12_14" function="internal">
        <lane id=":12_14_0" index="0" disallow="pedestrian" speed="3.65" length="2.34" shape="591.20,400.00 590.80,400.80 589.60,401.60"/>
    </edge>
    <edge id=":13_0" function="internal">
        <lane id=":13_0_0" index="0" disallow="pedestrian" speed="14.00" length="14.40" shape="395.20,307.20 395.20,292.80"/>
        <lane id=":13_0_1" index="1" disallow="pedestrian" speed="14.00" length="14.40" shape="398.40,307.20 398.40,292.80"/>
    </edge>
    <edge id=":13_2" function="internal">
        <lane id=":13_2_0" index="0" disallow="pedestrian" speed="8.67" length="3.71" shape="398.40,307.20 399.11,303.56"/>
    </edge>
    <edge id=":13_3" function="internal">
        <lane id=":13_3_0" index="0" disallow="pedestrian" speed="3.65" length="1.44" shape="398.40,307.20 399.20,306.00"/>
    </edge>
    <edge id=":13_11" function="internal">
        <lane id=":13_11_0" index="0" disallow="pedestrian" speed="8.67" length="13.14" shape="399.11,303.56 399.15,303.35 401.40,300.60 405.15,298.95 410.40,298.40"/>
    </edge>
    <edge id=":13_12" function="internal">
        <lane id=":13_12_0" index="0" disallow="pedestrian" speed="3.65" length="3.23" shape="399.20,306.00 400.00,305.60 400.80,306.00 401.60,307.20"/>
    </edge>
    <edge id=":13_4" function="internal">
        <lane id=":13_4_0" index="0" disallow="pedestrian" speed="6.51" length="9.03" shape="410.40,301.60 407.95,301.95 406.20,303.00 405.15,304.75 404.80,307.20"/>
    </edge>
    <edge id=":13_5" function="internal">
        <lane id=":13_5_0" index="0" disallow="pedestrian" speed="8.67" length="16.85" shape="410.40,301.60 405.15,301.05 401.40,299.40 399.15,296.65 398.40,292.80"/>
    </edge>
    <edge id=":13_6" function="internal">
        <lane id=":13_6_0" index="0" disallow="pedestrian" speed="3.65" length="4.67" shape="410.40,301.60 409.20,300.80 408.80,300.00 409.20,299.20 410.40,298.40"/>
    </edge>
    <edge id=":13_7" function="internal">
        <lane id=":13_7_0" index="0" disallow="pedestrian" speed="6.51" length="9.03" shape="404.80,292.80 405.15,295.25 406.20,297.00 407.95,298.05 410.40,298.40"/>
    </edge>
    <edge id=":13_8" function="internal">
        <lane id=":13_8_0" index="0" disallow="pedestrian" speed="14.00" length="14.40" shape="404.80,292.80 404.80,307.20"/>
        <lane id=":13_8_1" index="1" disallow="pedestrian" speed="14.00" length="14.40" shape="401.60,292.80 401.60,307.20"/>
    </edge>
    <edge id=":13_10" function="internal">
        <lane id=":13_10_0" index="0" disallow="pedestrian" speed="3.65" length="1.44" shape="401.60,292.80 400.80,294.00"/>
    </edge>
    <edge id=":13_13" function="internal">
        <lane id=":13_13_0" index="0" disallow="pedestrian" speed="3.65" length="3.23" shape="400.80,294.00 400.00,294.40 399.20,294.00 398.40,292.80"/>
    </edge>
    <edge id=":14_0" function="internal">
        <lane id=":14_0_0" index="0" disallow="pedestrian" speed="6.51" length="9.03" shape="498.40,307.20 498.05,304.75 497.00,303.00 495.25,301.95 492.80,301.60"/>
    </edge>
    <edge id=":14_1" function="internal">
        <lane id=":14_1_0" index="0" disallow="pedestrian" speed="14.00" length="14.40" shape="498.40,307.20 498.40,292.80"/>
    </edge>
    <edge id=":14_2" function="internal">
        <lane id=":14_2_0" index="0" disallow="pedestrian" speed="8.00" length="4.07" shape="498.40,307.20 498.95,303.35 499.04,303.20"/>
    </edge>
    <edge id=":14_3" function="internal">
        <lane id=":14_3_0" index="0" disallow="pedestrian" speed="3.65" length="1.44" shape="498.40,307.20 499.20,306.00"/>
    </edge>
    <edge id=":14_16" function="internal">
        <lane id=":14_16_0" index="0" disallow="pedestrian" speed="8.00" length="10.13" shape="499.04,303.20 500.60,300.60 503.35,298.95 507.20,298.40"/>
    </edge>
    <edge id=":14_17" function="internal">
        <lane id=":14_17_0" index="0" disallow="pedestrian" speed="3.65" length="3.23" shape="499.20,306.00 500.00,305.60 500.80,306.00 501.60,307.20"/>
    </edge>
    <edge id=":14_4" function="internal">
        <lane id=":14_4_0" index="0" disallow="pedestrian" speed="6.51" length="9.03" shape="507.20,301.60 504.75,301.95 503.00,303.00 501.95,304.75 501.60,307.20"/>
    </edge>
    <edge id=":14_5" function="internal">
        <lane id=":14_5_0" index="0" disallow="pedestrian" speed="14.00" length="14.40" shape="507.20,301.60 492.80,301.60"/>
    </edge>
    <edge id=":14_6" function="internal">
        <lane id=":14_6_0" index="0" disallow="pedestrian" speed="8.00" length="14.19" shape="507.20,301.60 503.35,301.05 500.60,299.40 498.95,296.65 498.40,292.80"/>
    </edge>
    <edge id=":14_7" function="internal">
        <lane id=":14_7_0" index="0" disallow="pedestrian" speed="3.65" length="4.67" shape="507.20,301.60 506.00,300.80 505.60,300.00 506.00,299.20 507.20,298.40"/>
    </edge>
    <edge id=":14_8" function="internal">
        <lane id=":14_8_0" index="0" disallow="pedestrian" speed="6.51" length="9.03" shape="501.60,292.80 501.95,295.25 503.00,297.00 504.75,298.05 507.20,298.40"/>
    </edge>
    <edge id=":14_9" function="internal">
        <lane id=":14_9_0" index="0" disallow="pedestrian" speed="14.00" length="14.40" shape="501.60,292.80 501.60,307.20"/>
    </edge>
    <edge id=":14_10" function="internal">
        <lane id=":14_10_0" index="0" disallow="pedestrian" speed="8.00" length="4.07" shape="501.60,292.80 501.05,296.65 500.96,296.80"/>
    </edge>
    <edge id=":14_11" function="internal">
        <lane id=":14_11_0" index="0" disallow="pedestrian" speed="3.65" length="1.44" shape="501.60,292.80 500.80,294.00"/>
    </edge>
    <edge id=":14_18" function="internal">
        <lane id=":14_18_0" index="0" disallow="pedestrian" speed="8.00" length="10.13" shape="500.96,296.80 499.40,299.40 496.65,301.05 492.80,301.60"/>
    </edge>
    <edge id=":14_19" function="internal">
        <lane id=":14_19_0" index="0" disallow="pedestrian" speed="3.65" length="3.23" shape="500.80,294.00 500.00,294.40 499.20,294.00 498.40,292.80"/>
    </edge>
    <edge id=":14_12" function="internal">
        <lane id=":14_12_0" index="0" disallow="pedestrian" speed="6.51" length="9.03" shape="492.80,298.40 495.25,298.05 497.00,297.00 498.05,295.25 498.40,292.80"/>
    </edge>
    <edge id=":14_13" function="internal">
        <lane id=":14_13_0" index="0" disallow="pedestrian" speed="14.00" length="14.40" shape="492.80,298.40 507.20,298.40"/>
    </edge>
    <edge id=":14_14" function="internal">
        <lane id=":14_14_0" index="0" disallow="pedestrian" speed="8.00" length="14.19" shape="492.80,298.40 496.65,298.95 499.40,300.60 501.05,303.35 501.60,307.20"/>
    </edge>
    <edge id=":14_15" function="internal">
        <lane id=":14_15_0" index="0" disallow="pedestrian" speed="3.65" length="4.67" shape="492.80,298.40 494.00,299.20 494.40,300.00 494.00,300.80 492.80,301.60"/>
    </edge>
    <edge id=":15_0" function="internal">
        <lane id=":15_0_0" index="0" disallow="pedestrian" speed="6.51" length="9.03" shape="595.20,307.20 594.85,304.75 593.80,303.00 592.05,301.95 589.60,301.60"/>
    </edge>
    <edge id=":15_1" function="internal">
        <lane id=":15_1_0" index="0" disallow="pedestrian" speed="14.00" length="14.40" shape="595.20,307.20 595.20,292.80"/>
        <lane id=":15_1_1" index="1" disallow="pedestrian" speed="14.00" length="14.40" shape="598.40,307.20 598.40,292.80"/>
    </edge>
    <edge id=":15_3" function="internal">
        <lane id=":15_3_0" index="0" disallow="pedestrian" speed="3.65" length="1.44" shape="598.40,307.20 599.20,306.00"/>
    </edge>
    <edge id=":15_11" function="internal">
        <lane id=":15_11_0" index="0" disallow="pedestrian" speed="3.65" length="3.23" shape="599.20,306.00 600.00,305.60 600.80,306.00 601.60,307.20"/>
    </edge>
    <edge id=":15_4" function="internal">
        <lane id=":15_4_0" index="0" disallow="pedestrian" speed="14.00" length="14.40" shape="604.80,292.80 604.80,307.20"/>
        <lane id=":15_4_1" index="1" disallow="pedestrian" speed="14.00" length="14.40" shape="601.60,292.80 601.60,307.20"/>
    </edge>
    <edge id=":15_6" function="internal">
        <lane id=":15_6_0" index="0" disallow="pedestrian" speed="8.67" length="3.71" shape="601.60,292.80 600.89,296.44"/>
    </edge>
    <edge id=":15_7" function="internal">
        <lane id=":15_7_0" index="0" disallow="pedestrian" speed="3.65" length="1.44" shape="601.60,292.80 600.80,294.00"/>
    </edge>
    <edge id=":15_12" function="internal">
        <lane id=":15_12_0" index="0" disallow="pedestrian" speed="8.67" length="13.14" shape="600.89,296.44 600.85,296.65 598.60,299.40 594.85,301.05 589.60,301.60"/>
    </edge>
    <edge id=":15_13" function="internal">
        <lane id=":15_13_0" index="0" disallow="pedestrian" speed="3.65" length="3.23" shape="600.80,294.00 600.00,294.40 599.20,294.00 598.40,292.80"/>
    </edge>
    <edge id=":15_8" function="internal">
        <lane id=":15_8_0" index="0" disallow="pedestrian" speed="6.51" length="9.03" shape="589.60,298.40 592.05,298.05 593.80,297.00 594.85,295.25 595.20,292.80"/>
    </edge>
    <edge id=":15_9" function="internal">
        <lane id=":15_9_0" index="0" disallow="pedestrian" speed="8.67" length="16.85" shape="589.60,298.40 594.85,298.95 598.60,300.60 600.85,303.35 601.60,307.20"/>
    </edge>
    <edge id=":15_10" function="internal">
        <lane id=":15_10_0" index="0" disallow="pedestrian" speed="3.65" length="4.67" shape="589.60,298.40 590.80,299.20 591.20,300.00 590.80,300.80 589.60,301.60"/>
    </edge>
    <edge id=":16_0" function="internal">
        <lane id=":16_0_0" index="0" disallow="pedestrian" speed="8.51" length="10.45" shape="395.20,210.40 394.97,207.03 394.28,204.37 393.13,202.40 391.53,201.13"/>
        <lane id=":16_0_1" index="1" disallow="pedestrian" speed="9.77" length="13.99" shape="398.40,210.40 398.06,206.11 397.04,202.66 395.34,200.05 392.96,198.27"/>
    </edge>
    <edge id=":16_2" function="internal">
        <lane id=":16_2_0" index="0" disallow="pedestrian" speed="9.26" length="19.35" shape="398.40,210.40 399.15,205.15 401.40,201.40 405.15,199.15 410.40,198.40"/>
    </edge>
    <edge id=":16_3" function="internal">
        <lane id=":16_3_0" index="0" disallow="pedestrian" speed="3.65" length="2.34" shape="398.40,210.40 399.20,209.20 400.00,208.80"/>
    </edge>
    <edge id=":16_12" function="internal">
        <lane id=":16_12_0" index="0" disallow="pedestrian" speed="3.65" length="2.34" shape="400.00,208.80 400.80,209.20 401.60,210.40"/>
    </edge>
    <edge id=":16_4" function="internal">
        <lane id=":16_4_0" index="0" disallow="pedestrian" speed="6.51" length="9.03" shape="410.40,204.80 407.95,205.15 406.20,206.20 405.15,207.95 404.80,210.40"/>
    </edge>
    <edge id=":16_5" function="internal">
        <lane id=":16_5_0" index="0" disallow="pedestrian" speed="22.00" length="18.80" shape="410.40,204.80 404.60,204.83 400.58,204.58 396.75,203.52 391.53,201.13"/>
        <lane id=":16_5_1" index="1" disallow="pedestrian" speed="22.00" length="18.80" shape="410.40,201.60 405.05,201.64 401.33,201.42 397.78,200.46 392.96,198.27"/>
    </edge>
    <edge id=":16_7" function="internal">
        <lane id=":16_7_0" index="0" disallow="pedestrian" speed="3.65" length="1.44" shape="410.40,201.60 409.20,200.80"/>
    </edge>
    <edge id=":16_13" function="internal">
        <lane id=":16_13_0" index="0" disallow="pedestrian" speed="3.65" length="3.23" shape="409.20,200.80 408.80,200.00 409.20,199.20 410.40,198.40"/>
    </edge>
    <edge id=":16_8" function="internal">
        <lane id=":16_8_0" index="0" disallow="pedestrian" speed="20.37" length="15.81" shape="395.82,192.54 399.85,194.36 402.82,195.11 405.93,195.25 410.40,195.20"/>
        <lane id=":16_8_1" index="1" disallow="pedestrian" speed="21.35" length="15.81" shape="394.39,195.41 398.82,197.41 402.07,198.27 405.49,198.44 410.40,198.40"/>
    </edge>
    <edge id=":16_10" function="internal">
        <lane id=":16_10_0" index="0" disallow="pedestrian" speed="10.89" length="3.59" shape="394.39,195.41 397.29,197.51"/>
    </edge>
    <edge id=":16_11" function="internal">
        <lane id=":16_11_0" index="0" disallow="pedestrian" speed="3.65" length="1.44" shape="394.39,195.41 395.10,196.66"/>
    </edge>
    <edge id=":16_14" function="internal">
        <lane id=":16_14_0" index="0" disallow="pedestrian" speed="10.89" length="13.95" shape="397.29,197.51 397.54,197.69 399.80,200.96 401.15,205.19 401.60,210.40"/>
    </edge>
    <edge id=":16_15" function="internal">
        <lane id=":16_15_0" index="0" disallow="pedestrian" speed="3.65" length="3.23" shape="395.10,196.66 395.10,197.55 394.39,198.09 392.96,198.27"/>
    </edge>
    <edge id=":17_0" function="internal">
        <lane id=":17_0_0" index="0" disallow="pedestrian" speed="6.51" length="9.03" shape="498.40,210.40 498.05,207.95 497.00,206.20 495.25,205.15 492.80,204.80"/>
    </edge>
    <edge id=":17_1" function="internal">
        <lane id=":17_1_0" index="0" disallow="pedestrian" speed="8.67" length="16.85" shape="498.40,210.40 498.95,205.15 500.60,201.40 503.35,199.15 507.20,198.40"/>
    </edge>
    <edge id=":17_2" function="internal">
        <lane id=":17_2_0" index="0" disallow="pedestrian" speed="3.65" length="4.67" shape="498.40,210.40 499.20,209.20 500.00,208.80 500.80,209.20 501.60,210.40"/>
    </edge>
    <edge id=":17_3" function="internal">
        <lane id=":17_3_0" index="0" disallow="pedestrian" speed="6.51" length="9.03" shape="507.20,204.80 504.75,205.15 503.00,206.20 501.95,207.95 501.60,210.40"/>
    </edge>
    <edge id=":17_4" function="internal">
        <lane id=":17_4_0" index="0" disallow="pedestrian" speed="14.00" length="14.40" shape="507.20,204.80 492.80,204.80"/>
        <lane id=":17_4_1" index="1" disallow="pedestrian" speed="14.00" length="14.40" shape="507.20,201.60 492.80,201.60"/>
    </edge>
    <edge id=":17_6" function="internal">
        <lane id=":17_6_0" index="0" disallow="pedestrian" speed="3.65" length="1.44" shape="507.20,201.60 506.00,200.80"/>
    </edge>
    <edge id=":17_11" function="internal">
        <lane id=":17_11_0" index="0" disallow="pedestrian" speed="3.65" length="3.23" shape="506.00,200.80 505.60,200.00 506.00,199.20 507.20,198.40"/>
    </edge>
    <edge id=":17_7" function="internal">
        <lane id=":17_7_0" index="0" disallow="pedestrian" speed="14.00" length="14.40" shape="492.80,195.20 507.20,195.20"/>
        <lane id=":17_7_1" index="1" disallow="pedestrian" speed="14.00" length="14.40" shape="492.80,198.40 507.20,198.40"/>
    </edge>
    <edge id=":17_9" function="internal">
        <lane id=":17_9_0" index="0" disallow="pedestrian" speed="8.67" length="3.71" shape="492.80,198.40 496.44,199.11"/>
    </edge>
    <edge id=":17_10" function="internal">
        <lane id=":17_10_0" index="0" disallow="pedestrian" speed="3.65" length="1.44" shape="492.80,198.40 494.00,199.20"/>
    </edge>
    <edge id=":17_12" function="internal">
        <lane id=":17_12_0" index="0" disallow="pedestrian" speed="8.67" length="13.14" shape="496.44,199.11 496.65,199.15 499.40,201.40 501.05,205.15 501.60,210.40"/>
    </edge>
    <edge id=":17_13" function="internal">
        <lane id=":17_13_0" index="0" disallow="pedestrian" speed="3.65" length="3.23" shape="494.00,199.20 494.40,200.00 494.00,200.80 492.80,201.60"/>
    </edge>
    <edge id=":18_0" function="internal">
        <lane id=":18_0_0" index="0" disallow="pedestrian" speed="6.51" length="9.03" shape="595.20,210.40 594.85,207.95 593.80,206.20 592.05,205.15 589.60,204.80"/>
    </edge>
    <edge id=":18_1" function="internal">
        <lane id=":18_1_0" index="0" disallow="pedestrian" speed="14.09" length="18.49" shape="595.20,210.40 595.51,204.67 596.45,199.86 598.01,195.98 600.19,193.02"/>
        <lane id=":18_1_1" index="1" disallow="pedestrian" speed="13.13" length="15.99" shape="598.40,210.40 598.65,205.31 599.41,201.09 600.68,197.75 602.45,195.29"/>
    </edge>
    <edge id=":18_3" function="internal">
        <lane id=":18_3_0" index="0" disallow="pedestrian" speed="3.65" length="1.44" shape="598.40,210.40 599.20,209.20"/>
    </edge>
    <edge id=":18_12" function="internal">
        <lane id=":18_12_0" index="0" disallow="pedestrian" speed="3.65" length="3.23" shape="599.20,209.20 600.00,208.80 600.80,209.20 601.60,210.40"/>
    </edge>
    <edge id=":18_4" function="internal">
        <lane id=":18_4_0" index="0" disallow="pedestrian" speed="10.95" length="11.00" shape="606.98,199.81 606.02,201.29 605.34,203.55 604.94,206.58 604.80,210.40"/>
        <lane id=":18_4_1" index="1" disallow="pedestrian" speed="12.09" length="13.49" shape="604.71,197.55 603.35,199.52 602.38,202.32 601.79,205.95 601.60,210.40"/>
    </edge>
    <edge id=":18_6" function="internal">
        <lane id=":18_6_0" index="0" disallow="pedestrian" speed="13.13" length="2.22" shape="604.71,197.55 602.91,198.84"/>
    </edge>
    <edge id=":18_7" function="internal">
        <lane id=":18_7_0" index="0" disallow="pedestrian" speed="3.65" length="1.29" shape="604.71,197.55 603.45,197.80"/>
    </edge>
    <edge id=":18_13" function="internal">
        <lane id=":18_13_0" index="0" disallow="pedestrian" speed="13.13" length="13.77" shape="602.91,198.84 602.25,199.32 598.91,200.59 594.69,201.35 589.60,201.60"/>
    </edge>
    <edge id=":18_14" function="internal">
        <lane id=":18_14_0" index="0" disallow="pedestrian" speed="3.65" length="3.39" shape="603.45,197.80 603.30,197.83 602.45,197.55 602.17,196.70 602.45,195.29"/>
    </edge>
    <edge id=":18_8" function="internal">
        <lane id=":18_8_0" index="0" disallow="pedestrian" speed="10.95" length="11.00" shape="589.60,195.20 593.42,195.06 596.45,194.66 598.71,193.98 600.19,193.02"/>
        <lane id=":18_8_1" index="1" disallow="pedestrian" speed="12.09" length="13.49" shape="589.60,198.40 594.05,198.21 597.68,197.62 600.48,196.65 602.45,195.29"/>
    </edge>
    <edge id=":18_10" function="internal">
        <lane id=":18_10_0" index="0" disallow="pedestrian" speed="9.26" length="19.35" shape="589.60,198.40 594.85,199.15 598.60,201.40 600.85,205.15 601.60,210.40"/>
    </edge>
    <edge id=":18_11" function="internal">
        <lane id=":18_11_0" index="0" disallow="pedestrian" speed="3.65" length="2.34" shape="589.60,198.40 590.80,199.20 591.20,200.00"/>
    </edge>
    <edge id=":18_15" function="internal">
        <lane id=":18_15_0" index="0" disallow="pedestrian" speed="3.65" length="2.34" shape="591.20,200.00 590.80,200.80 589.60,201.60"/>
    </edge>
    <edge id=":19_0" function="internal">
        <lane id=":19_0_0" index="0" disallow="pedestrian" speed="3.65" length="4.67" shape="-0.72,1.43 -1.43,0.18 -1.43,-0.72 -0.72,-1.25 0.72,-1.43"/>
    </edge>
    <edge id=":2_0" function="internal">
        <lane id=":2_0_0" index="0" disallow="pedestrian" speed="3.65" length="4.67" shape="201.33,1100.89 200.00,1101.44 199.11,1101.33 198.67,1100.55 198.67,1099.11"/>
    </edge>
    <edge id=":20_0" function="internal">
        <lane id=":20_0_0" index="0" disallow="pedestrian" speed="3.65" length="4.67" shape="798.87,-1.13 800.28,-1.41 801.13,-1.13 801.41,-0.28 801.13,1.13"/>
    </edge>
    <edge id=":3_0" function="internal">
        <lane id=":3_0_0" index="0" disallow="pedestrian" speed="3.65" length="4.67" shape="1001.13,998.87 1001.41,1000.28 1001.13,1001.13 1000.28,1001.41 998.87,1001.13"/>
    </edge>
    <edge id=":4_0" function="internal">
        <lane id=":4_0_0" index="0" disallow="pedestrian" speed="3.65" length="4.67" shape="0.00,801.60 -1.20,800.80 -1.60,800.00 -1.20,799.20 0.00,798.40"/>
    </edge>
    <edge id=":5_0" function="internal">
        <lane id=":5_0_0" index="0" disallow="pedestrian" speed="12.30" length="19.25" shape="409.40,804.80 405.93,805.52 402.35,807.70 398.65,811.32 394.84,816.39"/>
    </edge>
    <edge id=":5_1" function="internal">
        <lane id=":5_1_0" index="0" disallow="pedestrian" speed="22.00" length="26.43" shape="409.40,804.80 382.97,804.80"/>
        <lane id=":5_1_1" index="1" disallow="pedestrian" speed="22.00" length="26.43" shape="409.40,801.60 382.97,801.60"/>
    </edge>
    <edge id=":5_3" function="internal">
        <lane id=":5_3_0" index="0" disallow="pedestrian" speed="9.08" length="4.62" shape="409.40,801.60 404.84,800.89"/>
    </edge>