<?xml version="1.0" encoding="UTF-8"?>

<!-- generated on 2022-03-04 16:47:37 by Eclipse SUMO netconvert Version 1.12.0
<configuration xmlns:xsi="http://www.w3.org/2001/XMLSchema-instance" xsi:noNamespaceSchemaLocation="http://sumo.dlr.de/xsd/netconvertConfiguration.xsd">

    <input>
        <node-files value="lucerne.nod.xml"/>
        <edge-files value="lucerne.edg.xml"/>
    </input>

    <output>
        <output-file value="lucerne.net.xml"/>
    </output>

    <report>
        <aggregate-warnings value="5"/>
    </report>

</configuration>
-->

<net version="1.9" junctionCornerDetail="5" limitTurnSpeed="5.50" xmlns:xsi="http://www.w3.org/2001/XMLSchema-instance" xsi:noNamespaceSchemaLocation="http://sumo.dlr.de/xsd/net_file.xsd">

    <location netOffset="0.00,1200.00" convBoundary="0.00,0.00,1200.00,1200.00" origBoundary="0.00,-1200.00,1200.00,0.00" projParameter="!"/>

    <edge id=":1_0" function="internal">
        <lane id=":1_0_0" index="0" speed="3.65" length="4.67" shape="701.43,1199.28 701.25,1200.72 700.72,1201.43 699.82,1201.43 698.57,1200.72"/>
    </edge>
    <edge id=":10_0" function="internal">
        <lane id=":10_0_0" index="0" disallow="pedestrian" speed="14.00" length="14.40" shape="395.20,407.20 395.20,392.80"/>
        <lane id=":10_0_1" index="1" disallow="pedestrian" speed="14.00" length="14.40" shape="398.40,407.20 398.40,392.80"/>
    </edge>
    <edge id=":10_2" function="internal">
        <lane id=":10_2_0" index="0" disallow="pedestrian" speed="8.67" length="3.71" shape="398.40,407.20 399.11,403.56"/>
    </edge>
    <edge id=":10_3" function="internal">
        <lane id=":10_3_0" index="0" disallow="pedestrian" speed="3.65" length="1.44" shape="398.40,407.20 399.20,406.00"/>
    </edge>
    <edge id=":10_11" function="internal">
        <lane id=":10_11_0" index="0" disallow="pedestrian" speed="8.67" length="13.14" shape="399.11,403.56 399.15,403.35 401.40,400.60 405.15,398.95 410.40,398.40"/>
    </edge>
    <edge id=":10_12" function="internal">
        <lane id=":10_12_0" index="0" disallow="pedestrian" speed="3.65" length="3.23" shape="399.20,406.00 400.00,405.60 400.80,406.00 401.60,407.20"/>
    </edge>
    <edge id=":10_4" function="internal">
        <lane id=":10_4_0" index="0" disallow="pedestrian" speed="6.51" length="9.03" shape="410.40,401.60 407.95,401.95 406.20,403.00 405.15,404.75 404.80,407.20"/>
    </edge>
    <edge id=":10_5" function="internal">
        <lane id=":10_5_0" index="0" disallow="pedestrian" speed="8.67" length="16.85" shape="410.40,401.60 405.15,401.05 401.40,399.40 399.15,396.65 398.40,392.80"/>
    </edge>
    <edge id=":10_6" function="internal">
        <lane id=":10_6_0" index="0" disallow="pedestrian" speed="3.65" length="1.44" shape="410.40,401.60 409.20,400.80"/>
    </edge>
    <edge id=":10_13" function="internal">
        <lane id=":10_13_0" index="0" disallow="pedestrian" speed="3.65" length="3.23" shape="409.20,400.80 408.80,400.00 409.20,399.20 410.40,398.40"/>
    </edge>
    <edge id=":10_7" function="internal">
        <lane id=":10_7_0" index="0" disallow="pedestrian" speed="6.51" length="9.03" shape="404.80,392.80 405.15,395.25 406.20,397.00 407.95,398.05 410.40,398.40"/>
    </edge>
    <edge id=":10_8" function="internal">
        <lane id=":10_8_0" index="0" disallow="pedestrian" speed="14.00" length="14.40" shape="404.80,392.80 404.80,407.20"/>
        <lane id=":10_8_1" index="1" disallow="pedestrian" speed="14.00" length="14.40" shape="401.60,392.80 401.60,407.20"/>
    </edge>
    <edge id=":10_10" function="internal">
        <lane id=":10_10_0" index="0" disallow="pedestrian" speed="3.65" length="1.44" shape="401.60,392.80 400.80,394.00"/>
    </edge>
    <edge id=":10_14" function="internal">
        <lane id=":10_14_0" index="0" disallow="pedestrian" speed="3.65" length="3.23" shape="400.80,394.00 400.00,394.40 399.20,394.00 398.40,392.80"/>
    </edge>
    <edge id=":11_0" function="internal">
        <lane id=":11_0_0" index="0" disallow="pedestrian" speed="14.00" length="14.40" shape="507.20,401.60 492.80,401.60"/>
    </edge>
    <edge id=":11_1" function="internal">
        <lane id=":11_1_0" index="0" disallow="pedestrian" speed="8.00" length="4.07" shape="507.20,401.60 503.35,401.05 503.20,400.96"/>
    </edge>
    <edge id=":11_2" function="internal">
        <lane id=":11_2_0" index="0" disallow="pedestrian" speed="3.65" length="1.44" shape="507.20,401.60 506.00,400.80"/>
    </edge>
    <edge id=":11_9" function="internal">
        <lane id=":11_9_0" index="0" disallow="pedestrian" speed="8.00" length="10.13" shape="503.20,400.96 500.60,399.40 498.95,396.65 498.40,392.80"/>
    </edge>
    <edge id=":11_10" function="internal">
        <lane id=":11_10_0" index="0" disallow="pedestrian" speed="3.65" length="3.23" shape="506.00,400.80 505.60,400.00 506.00,399.20 507.20,398.40"/>
    </edge>
    <edge id=":11_3" function="internal">
        <lane id=":11_3_0" index="0" disallow="pedestrian" speed="6.51" length="9.03" shape="501.60,392.80 501.95,395.25 503.00,397.00 504.75,398.05 507.20,398.40"/>
    </edge>
    <edge id=":11_4" function="internal">
        <lane id=":11_4_0" index="0" disallow="pedestrian" speed="8.00" length="14.19" shape="501.60,392.80 501.05,396.65 499.40,399.40 496.65,401.05 492.80,401.60"/>
    </edge>
    <edge id=":11_5" function="internal">
        <lane id=":11_5_0" index="0" disallow="pedestrian" speed="3.65" length="4.67" shape="501.60,392.80 500.80,394.00 500.00,394.40 499.20,394.00 498.40,392.80"/>
    </edge>
    <edge id=":11_6" function="internal">
        <lane id=":11_6_0" index="0" disallow="pedestrian" speed="6.51" length="9.03" shape="492.80,398.40 495.25,398.05 497.00,397.00 498.05,395.25 498.40,392.80"/>
    </edge>
    <edge id=":11_7" function="internal">
        <lane id=":11_7_0" index="0" disallow="pedestrian" speed="14.00" length="14.40" shape="492.80,398.40 507.20,398.40"/>
    </edge>
    <edge id=":11_8" function="internal">
        <lane id=":11_8_0" index="0" disallow="pedestrian" speed="3.65" length="1.44" shape="492.80,398.40 494.00,399.20"/>
    </edge>
    <edge id=":11_11" function="internal">
        <lane id=":11_11_0" index="0" disallow="pedestrian" speed="3.65" length="3.23" shape="494.00,399.20 494.40,400.00 494.00,400.80 492.80,401.60"/>
    </edge>
    <edge id=":12_0" function="internal">
        <lane id=":12_0_0" index="0" disallow="pedestrian" speed="8.36" length="10.06" shape="597.83,406.39 596.42,404.30 594.57,402.80 592.30,401.90 589.60,401.60"/>
    </edge>
    <edge id=":12_1" function="internal">
        <lane id=":12_1_0" index="0" disallow="pedestrian" speed="14.00" length="13.33" shape="597.83,406.39 596.11,402.63 595.35,399.87 595.18,396.97 595.20,392.80"/>
        <lane id=":12_1_1" index="1" disallow="pedestrian" speed="14.00" length="13.33" shape="600.69,404.96 599.17,401.60 598.51,399.13 598.37,396.53 598.40,392.80"/>
    </edge>
    <edge id=":12_3" function="internal">
        <lane id=":12_3_0" index="0" disallow="pedestrian" speed="3.65" length="1.44" shape="600.69,404.96 600.87,403.53"/>
    </edge>
    <edge id=":12_11" function="internal">
        <lane id=":12_11_0" index="0" disallow="pedestrian" speed="3.65" length="3.23" shape="600.87,403.53 601.41,402.81 602.30,402.81 603.55,403.53"/>
    </edge>
    <edge id=":12_4" function="internal">
        <lane id=":12_4_0" index="0" disallow="pedestrian" speed="14.00" length="10.34" shape="604.80,392.80 604.76,395.65 604.82,397.64 605.27,399.53 606.42,402.10"/>
        <lane id=":12_4_1" index="1" disallow="pedestrian" speed="14.00" length="10.34" shape="601.60,392.80 601.56,396.09 601.66,398.38 602.22,400.56 603.55,403.53"/>
    </edge>
    <edge id=":12_6" function="internal">
        <lane id=":12_6_0" index="0" disallow="pedestrian" speed="8.67" length="3.76" shape="601.60,392.80 600.88,396.49"/>
    </edge>
    <edge id=":12_7" function="internal">
        <lane id=":12_7_0" index="0" disallow="pedestrian" speed="3.65" length="1.44" shape="601.60,392.80 600.80,394.00"/>
    </edge>
    <edge id=":12_12" function="internal">
        <lane id=":12_12_0" index="0" disallow="pedestrian" speed="8.67" length="13.09" shape="600.88,396.49 600.85,396.65 598.60,399.40 594.85,401.05 589.60,401.60"/>
    </edge>
    <edge id=":12_13" function="internal">
        <lane id=":12_13_0" index="0" disallow="pedestrian" speed="3.65" length="3.23" shape="600.80,394.00 600.00,394.40 599.20,394.00 598.40,392.80"/>
    </edge>
    <edge id=":12_8" function="internal">
        <lane id=":12_8_0" index="0" disallow="pedestrian" speed="6.51" length="9.03" shape="589.60,398.40 592.05,398.05 593.80,397.00 594.85,395.25 595.20,392.80"/>
    </edge>
    <edge id=":12_9" function="internal">
        <lane id=":12_9_0" index="0" disallow="pedestrian" speed="10.27" length="15.55" shape="589.60,398.40 594.74,398.72 598.78,399.68 601.72,401.29 603.55,403.53"/>
    </edge>
    <edge id=":12_10" function="internal">
        <lane id=":12_10_0" index="0" disallow="pedestrian" speed="3.65" length="1.44" shape="589.60,398.40 590.80,399.20"/>
    </edge>
    <edge id=":12_14" function="internal">
        <lane id=":12_14_0" index="0" disallow="pedestrian" speed="3.65" length="3.23" shape="590.80,399.20 591.20,400.00 590.80,400.80 589.60,401.60"/>
    </edge>
    <edge id=":13_0" function="internal">
        <lane id=":13_0_0" index="0" disallow="pedestrian" speed="14.00" length="14.40" shape="395.20,307.20 395.20,292.80"/>
        <lane id=":13_0_1" index="1" disallow="pedestrian" speed="14.00" length="14.40" shape="398.40,307.20 398.40,292.80"/>
    </edge>
    <edge id=":13_2" function="internal">
        <lane id=":13_2_0" index="0" disallow="pedestrian" speed="8.67" length="3.71" shape="398.40,307.20 399.11,303.56"/>
    </edge>
    <edge id=":13_3" function="internal">
        <lane id=":13_3_0" index="0" disallow="pedestrian" speed="3.65" length="1.44" shape="398.40,307.20 399.20,306.00"/>
    </edge>
    <edge id=":13_11" function="internal">
        <lane id=":13_11_0" index="0" disallow="pedestrian" speed="8.67" length="13.14" shape="399.11,303.56 399.15,303.35 401.40,300.60 405.15,298.95 410.40,298.40"/>
    </edge>
    <edge id=":13_12" function="internal">
        <lane id=":13_12_0" index="0" disallow="pedestrian" speed="3.65" length="3.23" shape="399.20,306.00 400.00,305.60 400.80,306.00 401.60,307.20"/>
    </edge>
    <edge id=":13_4" function="internal">
        <lane id=":13_4_0" index="0" disallow="pedestrian" speed="6.51" length="9.03" shape="410.40,301.60 407.95,301.95 406.20,303.00 405.15,304.75 404.80,307.20"/>
    </edge>
    <edge id=":13_5" function="internal">
        <lane id=":13_5_0" index="0" disallow="pedestrian" speed="8.67" length="16.85" shape="410.40,301.60 405.15,301.05 401.40,299.40 399.15,296.65 398.40,292.80"/>
    </edge>
    <edge id=":13_6" function="internal">
        <lane id=":13_6_0" index="0" disallow="pedestrian" speed="3.65" length="4.67" shape="410.40,301.60 409.20,300.80 408.80,300.00 409.20,299.20 410.40,298.40"/>
    </edge>
    <edge id=":13_7" function="internal">
        <lane id=":13_7_0" index="0" disallow="pedestrian" speed="6.51" length="9.03" shape="404.80,292.80 405.15,295.25 406.20,297.00 407.95,298.05 410.40,298.40"/>
    </edge>
    <edge id=":13_8" function="internal">
        <lane id=":13_8_0" index="0" disallow="pedestrian" speed="14.00" length="14.40" shape="404.80,292.80 404.80,307.20"/>
        <lane id=":13_8_1" index="1" disallow="pedestrian" speed="14.00" length="14.40" shape="401.60,292.80 401.60,307.20"/>
    </edge>
    <edge id=":13_10" function="internal">
        <lane id=":13_10_0" index="0" disallow="pedestrian" speed="3.65" length="1.44" shape="401.60,292.80 400.80,294.00"/>
    </edge>
    <edge id=":13_13" function="internal">
        <lane id=":13_13_0" index="0" disallow="pedestrian" speed="3.65" length="3.23" shape="400.80,294.00 400.00,294.40 399.20,294.00 398.40,292.80"/>
    </edge>
    <edge id=":14_0" function="internal">
        <lane id=":14_0_0" index="0" disallow="pedestrian" speed="6.51" length="9.03" shape="498.40,307.20 498.05,304.75 497.00,303.00 495.25,301.95 492.80,301.60"/>
    </edge>
    <edge id=":14_1" function="internal">
        <lane id=":14_1_0" index="0" disallow="pedestrian" speed="14.00" length="14.40" shape="498.40,307.20 498.40,292.80"/>
    </edge>
    <edge id=":14_2" function="internal">
        <lane id=":14_2_0" index="0" disallow="pedestrian" speed="8.00" length="4.07" shape="498.40,307.20 498.95,303.35 499.04,303.20"/>
    </edge>
    <edge id=":14_3" function="internal">
        <lane id=":14_3_0" index="0" disallow="pedestrian" speed="3.65" length="1.44" shape="498.40,307.20 499.20,306.00"/>
    </edge>
    <edge id=":14_16" function="internal">
        <lane id=":14_16_0" index="0" disallow="pedestrian" speed="8.00" length="10.13" shape="499.04,303.20 500.60,300.60 503.35,298.95 507.20,298.40"/>
    </edge>
    <edge id=":14_17" function="internal">
        <lane id=":14_17_0" index="0" disallow="pedestrian" speed="3.65" length="3.23" shape="499.20,306.00 500.00,305.60 500.80,306.00 501.60,307.20"/>
    </edge>
    <edge id=":14_4" function="internal">
        <lane id=":14_4_0" index="0" disallow="pedestrian" speed="6.51" length="9.03" shape="507.20,301.60 504.75,301.95 503.00,303.00 501.95,304.75 501.60,307.20"/>
    </edge>
    <edge id=":14_5" function="internal">
        <lane id=":14_5_0" index="0" disallow="pedestrian" speed="14.00" length="14.40" shape="507.20,301.60 492.80,301.60"/>
    </edge>
    <edge id=":14_6" function="internal">
        <lane id=":14_6_0" index="0" disallow="pedestrian" speed="8.00" length="14.19" shape="507.20,301.60 503.35,301.05 500.60,299.40 498.95,296.65 498.40,292.80"/>
    </edge>
    <edge id=":14_7" function="internal">
        <lane id=":14_7_0" index="0" disallow="pedestrian" speed="3.65" length="4.67" shape="507.20,301.60 506.00,300.80 505.60,300.00 506.00,299.20 507.20,298.40"/>
    </edge>
    <edge id=":14_8" function="internal">
        <lane id=":14_8_0" index="0" disallow="pedestrian" speed="6.51" length="9.03" shape="501.60,292.80 501.95,295.25 503.00,297.00 504.75,298.05 507.20,298.40"/>
    </edge>
    <edge id=":14_9" function="internal">
        <lane id=":14_9_0" index="0" disallow="pedestrian" speed="14.00" length="14.40" shape="501.60,292.80 501.60,307.20"/>
    </edge>
    <edge id=":14_10" function="internal">
        <lane id=":14_10_0" index="0" disallow="pedestrian" speed="8.00" length="4.07" shape="501.60,292.80 501.05,296.65 500.96,296.80"/>
    </edge>
    <edge id=":14_11" function="internal">
        <lane id=":14_11_0" index="0" disallow="pedestrian" speed="3.65" length="1.44" shape="501.60,292.80 500.80,294.00"/>
    </edge>
    <edge id=":14_18" function="internal">
        <lane id=":14_18_0" index="0" disallow="pedestrian" speed="8.00" length="10.13" shape="500.96,296.80 499.40,299.40 496.65,301.05 492.80,301.60"/>
    </edge>
    <edge id=":14_19" function="internal">
        <lane id=":14_19_0" index="0" disallow="pedestrian" speed="3.65" length="3.23" shape="500.80,294.00 500.00,294.40 499.20,294.00 498.40,292.80"/>
    </edge>
    <edge id=":14_12" function="internal">
        <lane id=":14_12_0" index="0" disallow="pedestrian" speed="6.51" length="9.03" shape="492.80,298.40 495.25,298.05 497.00,297.00 498.05,295.25 498.40,292.80"/>
    </edge>
    <edge id=":14_13" function="internal">
        <lane id=":14_13_0" index="0" disallow="pedestrian" speed="14.00" length="14.40" shape="492.80,298.40 507.20,298.40"/>
    </edge>
    <edge id=":14_14" function="internal">
        <lane id=":14_14_0" index="0" disallow="pedestrian" speed="8.00" length="14.19" shape="492.80,298.40 496.65,298.95 499.40,300.60 501.05,303.35 501.60,307.20"/>
    </edge>
    <edge id=":14_15" function="internal">
        <lane id=":14_15_0" index="0" disallow="pedestrian" speed="3.65" length="4.67" shape="492.80,298.40 494.00,299.20 494.40,300.00 494.00,300.80 492.80,301.60"/>
    </edge>
    <edge id=":15_0" function="internal">
        <lane id=":15_0_0" index="0" disallow="pedestrian" speed="6.51" length="9.03" shape="595.20,307.20 594.85,304.75 593.80,303.00 592.05,301.95 589.60,301.60"/>
    </edge>
    <edge id=":15_1" function="internal">
        <lane id=":15_1_0" index="0" disallow="pedestrian" speed="14.00" length="14.40" shape="595.20,307.20 595.20,292.80"/>
        <lane id=":15_1_1" index="1" disallow="pedestrian" speed="14.00" length="14.40" shape="598.40,307.20 598.40,292.80"/>
    </edge>
    <edge id=":15_3" function="internal">
        <lane id=":15_3_0" index="0" disallow="pedestrian" speed="3.65" length="1.44" shape="598.40,307.20 599.20,306.00"/>
    </edge>
    <edge id=":15_11" function="internal">
        <lane id=":15_11_0" index="0" disallow="pedestrian" speed="3.65" length="3.23" shape="599.20,306.00 600.00,305.60 600.80,306.00 601.60,307.20"/>
    </edge>
    <edge id=":15_4" function="internal">
        <lane id=":15_4_0" index="0" disallow="pedestrian" speed="14.00" length="14.40" shape="604.80,292.80 604.80,307.20"/>
        <lane id=":15_4_1" index="1" disallow="pedestrian" speed="14.00" length="14.40" shape="601.60,292.80 601.60,307.20"/>
    </edge>
    <edge id=":15_6" function="internal">
        <lane id=":15_6_0" index="0" disallow="pedestrian" speed="8.67" length="3.71" shape="601.60,292.80 600.89,296.44"/>
    </edge>
    <edge id=":15_7" function="internal">
        <lane id=":15_7_0" index="0" disallow="pedestrian" speed="3.65" length="1.44" shape="601.60,292.80 600.80,294.00"/>
    </edge>
    <edge id=":15_12" function="internal">
        <lane id=":15_12_0" index="0" disallow="pedestrian" speed="8.67" length="13.14" shape="600.89,296.44 600.85,296.65 598.60,299.40 594.85,301.05 589.60,301.60"/>
    </edge>
    <edge id=":15_13" function="internal">
        <lane id=":15_13_0" index="0" disallow="pedestrian" speed="3.65" length="3.23" shape="600.80,294.00 600.00,294.40 599.20,294.00 598.40,292.80"/>
    </edge>
    <edge id=":15_8" function="internal">
        <lane id=":15_8_0" index="0" disallow="pedestrian" speed="6.51" length="9.03" shape="589.60,298.40 592.05,298.05 593.80,297.00 594.85,295.25 595.20,292.80"/>
    </edge>
    <edge id=":15_9" function="internal">
        <lane id=":15_9_0" index="0" disallow="pedestrian" speed="8.67" length="16.85" shape="589.60,298.40 594.85,298.95 598.60,300.60 600.85,303.35 601.60,307.20"/>
    </edge>
    <edge id=":15_10" function="internal">
        <lane id=":15_10_0" index="0" disallow="pedestrian" speed="3.65" length="4.67" shape="589.60,298.40 590.80,299.20 591.20,300.00 590.80,300.80 589.60,301.60"/>
    </edge>
    <edge id=":16_0" function="internal">
        <lane id=":16_0_0" index="0" disallow="pedestrian" speed="7.88" length="8.86" shape="395.20,208.69 394.97,206.07 394.28,203.94 393.13,202.29 391.53,201.13"/>
        <lane id=":16_0_1" index="1" disallow="pedestrian" speed="9.23" length="12.41" shape="398.40,208.69 398.06,205.15 397.04,202.23 395.34,199.94 392.96,198.27"/>
    </edge>
    <edge id=":16_2" function="internal">
        <lane id=":16_2_0" index="0" disallow="pedestrian" speed="9.52" length="20.52" shape="398.40,208.69 399.34,204.19 402.15,200.97 406.83,199.04 413.38,198.40"/>
    </edge>
    <edge id=":16_3" function="internal">
        <lane id=":16_3_0" index="0" disallow="pedestrian" speed="3.65" length="2.34" shape="398.40,208.69 399.20,207.49 400.00,207.09"/>
    </edge>
    <edge id=":16_10" function="internal">
        <lane id=":16_10_0" index="0" disallow="pedestrian" speed="3.65" length="2.34" shape="400.00,207.09 400.80,207.49 401.60,208.69"/>
    </edge>
    <edge id=":16_4" function="internal">
        <lane id=":16_4_0" index="0" disallow="pedestrian" speed="7.59" length="12.66" shape="413.38,201.60 409.63,202.04 406.95,203.37 405.34,205.59 404.80,208.69"/>
    </edge>
    <edge id=":16_5" function="internal">
        <lane id=":16_5_0" index="0" disallow="pedestrian" speed="22.00" length="21.04" shape="413.38,201.60 407.27,201.73 402.89,201.67 398.65,200.74 392.96,198.27"/>
    </edge>
    <edge id=":16_6" function="internal">
        <lane id=":16_6_0" index="0" disallow="pedestrian" speed="3.65" length="1.44" shape="413.38,201.60 412.18,200.80"/>
    </edge>
    <edge id=":16_11" function="internal">
        <lane id=":16_11_0" index="0" disallow="pedestrian" speed="3.65" length="3.23" shape="412.18,200.80 411.78,200.00 412.18,199.20 413.38,198.40"/>
    </edge>
    <edge id=":16_7" function="internal">
        <lane id=":16_7_0" index="0" disallow="pedestrian" speed="22.00" length="18.84" shape="395.82,192.54 400.76,195.20 404.23,197.02 407.90,198.07 413.38,198.40"/>
    </edge>
    <edge id=":16_8" function="internal">
        <lane id=":16_8_0" index="0" disallow="pedestrian" speed="10.41" length="3.67" shape="394.39,195.41 397.41,197.50"/>
    </edge>
    <edge id=":16_9" function="internal">
        <lane id=":16_9_0" index="0" disallow="pedestrian" speed="3.65" length="1.44" shape="394.39,195.41 395.10,196.66"/>
    </edge>
    <edge id=":16_12" function="internal">
        <lane id=":16_12_0" index="0" disallow="pedestrian" speed="10.41" length="12.29" shape="397.41,197.50 397.54,197.59 399.80,200.53 401.15,204.23 401.60,208.69"/>
    </edge>
    <edge id=":16_13" function="internal">
        <lane id=":16_13_0" index="0" disallow="pedestrian" speed="3.65" length="3.23" shape="395.10,196.66 395.10,197.55 394.39,198.09 392.96,198.27"/>
    </edge>
    <edge id=":17_0" function="internal">
        <lane id=":17_0_0" index="0" disallow="pedestrian" speed="6.51" length="9.03" shape="498.40,207.20 498.05,204.75 497.00,203.00 495.25,201.95 492.80,201.60"/>
    </edge>
    <edge id=":17_1" function="internal">
        <lane id=":17_1_0" index="0" disallow="pedestrian" speed="8.00" length="14.19" shape="498.40,207.20 498.95,203.35 500.60,200.60 503.35,198.95 507.20,198.40"/>
    </edge>
    <edge id=":17_2" function="internal">
        <lane id=":17_2_0" index="0" disallow="pedestrian" speed="3.65" length="4.67" shape="498.40,207.20 499.20,206.00 500.00,205.60 500.80,206.00 501.60,207.20"/>
    </edge>
    <edge id=":17_3" function="internal">
        <lane id=":17_3_0" index="0" disallow="pedestrian" speed="6.51" length="9.03" shape="507.20,201.60 504.75,201.95 503.00,203.00 501.95,204.75 501.60,207.20"/>
    </edge>
    <edge id=":17_4" function="internal">
        <lane id=":17_4_0" index="0" disallow="pedestrian" speed="14.00" length="14.40" shape="507.20,201.60 492.80,201.60"/>
    </edge>
    <edge id=":17_5" function="internal">
        <lane id=":17_5_0" index="0" disallow="pedestrian" speed="3.65" length="1.44" shape="507.20,201.60 506.00,200.80"/>
    </edge>
    <edge id=":17_9" function="internal">
        <lane id=":17_9_0" index="0" disallow="pedestrian" speed="3.65" length="3.23" shape="506.00,200.80 505.60,200.00 506.00,199.20 507.20,198.40"/>
    </edge>
    <edge id=":17_6" function="internal">
        <lane id=":17_6_0" index="0" disallow="pedestrian" speed="14.00" length="14.40" shape="492.80,198.40 507.20,198.40"/>
    </edge>
    <edge id=":17_7" function="internal">
        <lane id=":17_7_0" index="0" disallow="pedestrian" speed="8.00" length="4.07" shape="492.80,198.40 496.65,198.95 496.80,199.04"/>
    </edge>
    <edge id=":17_8" function="internal">
        <lane id=":17_8_0" index="0" disallow="pedestrian" speed="3.65" length="1.44" shape="492.80,198.40 494.00,199.20"/>
    </edge>
    <edge id=":17_10" function="internal">
        <lane id=":17_10_0" index="0" disallow="pedestrian" speed="8.00" length="10.13" shape="496.80,199.04 499.40,200.60 501.05,203.35 501.60,207.20"/>
    </edge>
    <edge id=":17_11" function="internal">
        <lane id=":17_11_0" index="0" disallow="pedestrian" speed="3.65" length="3.23" shape="494.00,199.20 494.40,200.00 494.00,200.80 492.80,201.60"/>
    </edge>
    <edge id=":18_0" function="internal">
        <lane id=":18_0_0" index="0" disallow="pedestrian" speed="6.65" length="9.48" shape="595.20,207.48 594.83,204.91 593.73,203.07 591.89,201.97 589.32,201.60"/>
    </edge>
    <edge id=":18_1" function="internal">
        <lane id=":18_1_0" index="0" disallow="pedestrian" speed="13.00" length="15.68" shape="595.20,207.48 595.51,203.03 596.45,199.13 598.01,195.80 600.19,193.02"/>
        <lane id=":18_1_1" index="1" disallow="pedestrian" speed="11.95" length="13.17" shape="598.40,207.48 598.65,203.66 599.41,200.36 600.68,197.57 602.45,195.29"/>
    </edge>
    <edge id=":18_3" function="internal">
        <lane id=":18_3_0" index="0" disallow="pedestrian" speed="3.65" length="1.44" shape="598.40,207.48 599.20,206.28"/>
    </edge>
    <edge id=":18_11" function="internal">
        <lane id=":18_11_0" index="0" disallow="pedestrian" speed="3.65" length="3.23" shape="599.20,206.28 600.00,205.88 600.80,206.28 601.60,207.48"/>
    </edge>
    <edge id=":18_4" function="internal">
        <lane id=":18_4_0" index="0" disallow="pedestrian" speed="9.49" length="8.15" shape="606.98,199.81 606.02,201.11 605.34,202.82 604.94,204.94 604.80,207.48"/>
        <lane id=":18_4_1" index="1" disallow="pedestrian" speed="10.79" length="10.66" shape="604.71,197.55 603.35,199.34 602.38,201.59 601.79,204.30 601.60,207.48"/>
    </edge>
    <edge id=":18_6" function="internal">
        <lane id=":18_6_0" index="0" disallow="pedestrian" speed="13.24" length="2.49" shape="604.71,197.55 602.69,199.00"/>
    </edge>
    <edge id=":18_7" function="internal">
        <lane id=":18_7_0" index="0" disallow="pedestrian" speed="3.65" length="1.32" shape="604.71,197.55 603.42,197.81"/>
    </edge>
    <edge id=":18_12" function="internal">
        <lane id=":18_12_0" index="0" disallow="pedestrian" speed="13.24" length="13.77" shape="602.69,199.00 602.23,199.32 598.84,200.59 594.54,201.35 589.32,201.60"/>
    </edge>
    <edge id=":18_13" function="internal">
        <lane id=":18_13_0" index="0" disallow="pedestrian" speed="3.65" length="3.36" shape="603.42,197.81 603.30,197.83 602.45,197.55 602.17,196.70 602.45,195.29"/>
    </edge>
    <edge id=":18_8" function="internal">
        <lane id=":18_8_0" index="0" disallow="pedestrian" speed="11.62" length="12.43" shape="589.32,198.40 592.06,198.06 594.78,197.06 597.49,195.38 600.19,193.02"/>
    </edge>
    <edge id=":18_9" function="internal">
        <lane id=":18_9_0" index="0" disallow="pedestrian" speed="8.78" length="17.30" shape="589.32,198.40 594.69,198.97 598.53,200.67 600.83,203.51 601.60,207.48"/>
    </edge>
    <edge id=":18_10" function="internal">
        <lane id=":18_10_0" index="0" disallow="pedestrian" speed="3.65" length="1.44" shape="589.32,198.40 590.52,199.20"/>
    </edge>
    <edge id=":18_14" function="internal">
        <lane id=":18_14_0" index="0" disallow="pedestrian" speed="3.65" length="3.23" shape="590.52,199.20 590.92,200.00 590.52,200.80 589.32,201.60"/>
    </edge>
    <edge id=":19_0" function="internal">
        <lane id=":19_0_0" index="0" disallow="pedestrian" speed="3.65" length="4.67" shape="-0.72,1.43 -1.43,0.18 -1.43,-0.72 -0.72,-1.25 0.72,-1.43"/>
    </edge>
    <edge id=":2_0" function="internal">
        <lane id=":2_0_0" index="0" disallow="pedestrian" speed="3.65" length="4.67" shape="201.33,1100.89 200.00,1101.44 199.11,1101.33 198.67,1100.55 198.67,1099.11"/>
    </edge>
    <edge id=":20_0" function="internal">
        <lane id=":20_0_0" index="0" disallow="pedestrian" speed="3.65" length="4.67" shape="798.87,-1.13 800.28,-1.41 801.13,-1.13 801.41,-0.28 801.13,1.13"/>
    </edge>
    <edge id=":3_0" function="internal">
        <lane id=":3_0_0" index="0" disallow="pedestrian" speed="3.65" length="4.67" shape="1001.13,998.87 1001.41,1000.28 1001.13,1001.13 1000.28,1001.41 998.87,1001.13"/>
    </edge>
    <edge id=":4_0" function="internal">
        <lane id=":4_0_0" index="0" disallow="pedestrian" speed="3.65" length="4.67" shape="0.00,801.60 -1.20,800.80 -1.60,800.00 -1.20,799.20 0.00,798.40"/>
    </edge>
    <edge id=":5_0" function="internal">
        <lane id=":5_0_0" index="0" disallow="pedestrian" speed="12.30" length="19.25" shape="409.40,804.80 405.93,805.52 402.35,807.70 398.65,811.32 394.84,816.39"/>
    </edge>
    <edge id=":5_1" function="internal">
        <lane id=":5_1_0" index="0" disallow="pedestrian" speed="22.00" length="26.43" shape="409.40,804.80 382.97,804.80"/>
        <lane id=":5_1_1" index="1" disallow="pedestrian" speed="22.00" length="26.43" shape="409.40,801.60 382.97,801.60"/>
    </edge>
    <edge id=":5_3" function="internal">
        <lane id=":5_3_0" index="0" disallow="pedestrian" speed="9.08" length="4.62" shape="409.40,801.60 404.84,800.89"/>
    </edge>
    <edge id=":5_4" function="internal">
        <lane id=":5_4_0" index="0" disallow="pedestrian" speed="3.65" length="1.44" shape="409.40,801.60 408.20,800.80"/>
    </edge>
    <edge id=":5_20" function="internal">
        <lane id=":5_20_0" index="0" disallow="pedestrian" speed="9.08" length="13.94" shape="404.84,800.89 404.59,800.85 401.15,798.60 399.09,794.85 398.40,789.60"/>
    </edge>
    <edge id=":5_21" function="internal">
        <lane id=":5_21_0" index="0" disallow="pedestrian" speed="3.65" length="3.23" shape="408.20,800.80 407.80,800.00 408.20,799.20 409.40,798.40"/>
    </edge>
    <edge id=":5_5" function="internal">
        <lane id=":5_5_0" index="0" disallow="pedestrian" speed="6.25" length="8.24" shape="404.80,789.60 405.09,792.05 405.95,793.80 407.39,794.85 409.40,795.20"/>
    </edge>
    <edge id=":5_6" function="internal">
        <lane id=":5_6_0" index="0" disallow="pedestrian" speed="22.00" length="28.38" shape="404.80,789.60 404.36,798.14 402.79,803.89 399.74,809.19 394.84,816.39"/>
        <lane id=":5_6_1" index="1" disallow="pedestrian" speed="21.61" length="28.38" shape="401.60,789.60 401.17,797.58 399.67,802.95 396.78,807.89 392.18,814.61"/>
    </edge>