<?xml version="1.0" encoding="UTF-8"?>
<!-- generated on 2022-03-04 12:06:25.867769 by randomTrips.py v1_12_0+0000-800cb422fa4
  options: -n lucerne.net.xml -e 600 -o lucerne.trips.xml
-->
<routes xmlns:xsi="http://www.w3.org/2001/XMLSchema-instance" xsi:noNamespaceSchemaLocation="http://sumo.dlr.de/xsd/routes_file.xsd">
   <trip id="1" depart="1" from="e48" to="e9"/>
<trip id="2" depart="2" from="e1" to="e24"/>
<trip id="3" depart="3" from="e1" to="e24"/>
<trip id="4" depart="4" from="e48" to="e14"/>
<trip id="5" depart="5" from="e20" to="e24"/>
<trip id="6" depart="6" from="e1" to="e24"/>
<trip id="7" depart="7" from="e1" to="e24"/>
<trip id="8" depart="8" from="e1" to="e9"/>
<trip id="9" depart="9" from="e1" to="e24"/>
<trip id="10" depart="10" from="e1" to="e24"/>
<trip id="11" depart="11" from="e48" to="e3"/>
<trip id="12" depart="12" from="e1" to="e24"/>
<trip id="13" depart="13" from="e1" to="e9"/>
<trip id="14" depart="14" from="e1" to="e9"/>
<trip id="15" depart="15" from="e4" to="e24"/>
<trip id="16" depart="16" from="e48" to="e9"/>
<trip id="17" depart="17" from="e6" to="e17"/>
<trip id="18" depart="18" from="e48" to="e3"/>
<trip id="19" depart="19" from="e48" to="e3"/>
<trip id="20" depart="20" from="e48" to="e9"/>
<trip id="21" depart="21" from="e48" to="e1"/>
<trip id="22" depart="22" from="e4" to="e9"/>
<trip id="23" depart="23" from="e4" to="e24"/>
<trip id="24" depart="24" from="e48" to="e14"/>
<trip id="25" depart="25" from="e48" to="e9"/>
<trip id="26" depart="26" from="e48" to="e3"/>
<trip id="27" depart="27" from="e48" to="e9"/>
<trip id="28" depart="28" from="e48" to="e1"/>
<trip id="29" depart="29" from="e48" to="e1"/>
<trip id="30" depart="30" from="e1" to="e23"/>
<trip id="31" depart="31" from="e1" to="e24"/>
<trip id="32" depart="32" from="e1" to="e4"/>
<trip id="33" depart="33" from="e48" to="e1"/>
<trip id="34" depart="34" from="e48" to="e9"/>
<trip id="35" depart="35" from="e10" to="e2"/>
<trip id="36" depart="36" from="e48" to="e3"/>
<trip id="37" depart="37" from="e4" to="e9"/>
<trip id="38" depart="38" from="e4" to="e24"/>
<trip id="39" depart="39" from="e48" to="e9"/>
<trip id="40" depart="40" from="e48" to="e3"/>
<trip id="41" depart="41" from="e48" to="e1"/>
<trip id="42" depart="42" from="e1" to="e4"/>
<trip id="43" depart="43" from="e48" to="e3"/>
<trip id="44" depart="44" from="e1" to="e24"/>
<trip id="45" depart="45" from="e4" to="e24"/>
<trip id="46" depart="46" from="e1" to="e9"/>
<trip id="47" depart="47" from="e1" to="e4"/>
<trip id="48" depart="48" from="e4" to="e16"/>
<trip id="49" depart="49" from="e1" to="e11"/>
<trip id="50" depart="50" from="e1" to="e23"/>
<trip id="51" depart="51" from="e1" to="e9"/>
<trip id="52" depart="52" from="e48" to="e9"/>
<trip id="53" depart="53" from="e1" to="e23"/>
<trip id="54" depart="54" from="e48" to="e3"/>
<trip id="55" depart="55" from="e4" to="e9"/>
<trip id="56" depart="56" from="e4" to="e9"/>
<trip id="57" depart="57" from="e4" to="e24"/>
<trip id="58" depart="58" from="e4" to="e24"/>
<trip id="59" depart="59" from="e1" to="e9"/>
<trip id="60" depart="60" from="e4" to="e9"/>
<trip id="61" depart="61" from="e48" to="e9"/>
<trip id="62" depart="62" from="e4" to="e24"/>
<trip id="63" depart="63" from="e1" to="e23"/>
<trip id="64" depart="64" from="e1" to="e9"/>
<trip id="65" depart="65" from="e48" to="e9"/>
<trip id="66" depart="66" from="e48" to="e9"/>
<trip id="67" depart="67" from="e48" to="e3"/>
<trip id="68" depart="68" from="e16" to="e16"/>
<trip id="69" depart="69" from="e1" to="e9"/>
<trip id="70" depart="70" from="e4" to="e24"/>
<trip id="71" depart="71" from="e4" to="e24"/>
<trip id="72" depart="72" from="e4" to="e9"/>
<trip id="73" depart="73" from="e48" to="e9"/>
<trip id="74" depart="74" from="e1" to="e4"/>
<trip id="75" depart="75" from="e4" to="e24"/>
<trip id="76" depart="76" from="e4" to="e9"/>
<trip id="77" depart="77" from="e4" to="e24"/>
<trip id="78" depart="78" from="e1" to="e23"/>
<trip id="79" depart="79" from="e48" to="e3"/>
<trip id="80" depart="80" from="e4" to="e9"/>
<trip id="81" depart="81" from="e1" to="e24"/>
<trip id="82" depart="82" from="e1" to="e23"/>
<trip id="83" depart="83" from="e4" to="e24"/>
<trip id="84" depart="84" from="e1" to="e23"/>
<trip id="85" depart="85" from="e1" to="e4"/>
<trip id="86" depart="86" from="e1" to="e4"/>
<trip id="87" depart="87" from="e12" to="e14"/>
<trip id="88" depart="88" from="e4" to="e24"/>
<trip id="89" depart="89" from="e4" to="e9"/>
<trip id="90" depart="90" from="e1" to="e23"/>
<trip id="91" depart="91" from="e1" to="e4"/>
<trip id="92" depart="92" from="e48" to="e3"/>
<trip id="93" depart="93" from="e48" to="e9"/>
<trip id="94" depart="94" from="e19" to="e21"/>
<trip id="95" depart="95" from="e48" to="e3"/>
<trip id="96" depart="96" from="e48" to="e3"/>
<trip id="97" depart="97" from="e48" to="e3"/>
<trip id="98" depart="98" from="e48" to="e3"/>
<trip id="99" depart="99" from="e48" to="e1"/>
<trip id="100" depart="100" from="e1" to="e24"/>
<trip id="101" depart="101" from="e1" to="e9"/>
<trip id="102" depart="102" from="e48" to="e3"/>
<trip id="103" depart="103" from="e48" to="e1"/>
<trip id="104" depart="104" from="e3" to="e22"/>
<trip id="105" depart="105" from="e1" to="e9"/>
<trip id="106" depart="106" from="e1" to="e7"/>
<trip id="107" depart="107" from="e48" to="e14"/>
<trip id="108" depart="108" from="e48" to="e1"/>
<trip id="109" depart="109" from="e4" to="e24"/>
<trip id="110" depart="110" from="e48" to="e9"/>
<trip id="111" depart="111" from="e1" to="e9"/>
<trip id="112" depart="112" from="e4" to="e9"/>
<trip id="113" depart="113" from="e1" to="e23"/>
<trip id="114" depart="114" from="e1" to="e24"/>
<trip id="115" depart="115" from="e48" to="e9"/>
<trip id="116" depart="116" from="e48" to="e1"/>
<trip id="117" depart="117" from="e1" to="e23"/>
<trip id="118" depart="118" from="e1" to="e23"/>
<trip id="119" depart="119" from="e1" to="e24"/>
<trip id="120" depart="120" from="e4" to="e24"/>
<trip id="121" depart="121" from="e1" to="e9"/>
<trip id="122" depart="122" from="e24" to="e12"/>
<trip id="123" depart="123" from="e21" to="e11"/>
<trip id="124" depart="124" from="e1" to="e4"/>
<trip id="125" depart="125" from="e1" to="e4"/>
<trip id="126" depart="126" from="e48" to="e1"/>
<trip id="127" depart="127" from="e48" to="e3"/>
<trip id="128" depart="128" from="e1" to="e9"/>
<trip id="129" depart="129" from="e1" to="e9"/>
<trip id="130" depart="130" from="e48" to="e14"/>
<trip id="131" depart="131" from="e1" to="e4"/>
<trip id="132" depart="132" from="e48" to="e9"/>
<trip id="133" depart="133" from="e48" to="e14"/>
<trip id="134" depart="134" from="e1" to="e23"/>
<trip id="135" depart="135" from="e48" to="e1"/>
<trip id="136" depart="136" from="e48" to="e14"/>
<trip id="137" depart="137" from="e1" to="e4"/>
<trip id="138" depart="138" from="e13" to="e15"/>
<trip id="139" depart="139" from="e14" to="e11"/>
<trip id="140" depart="140" from="e24" to="e5"/>
<trip id="141" depart="141" from="e4" to="e24"/>
<trip id="142" depart="142" from="e48" to="e1"/>
<trip id="143" depart="143" from="e1" to="e24"/>
<trip id="144" depart="144" from="e1" to="e24"/>
<trip id="145" depart="145" from="e48" to="e9"/>
<trip id="146" depart="146" from="e4" to="e24"/>
<trip id="147" depart="147" from="e4" to="e24"/>
<trip id="148" depart="148" from="e18" to="e14"/>
<trip id="149" depart="149" from="e4" to="e24"/>
<trip id="150" depart="150" from="e48" to="e9"/>
<trip id="151" depart="151" from="e4" to="e24"/>
<trip id="152" depart="152" from="e1" to="e4"/>
<trip id="153" depart="153" from="e23" to="e8"/>
<trip id="154" depart="154" from="e48" to="e1"/>
<trip id="155" depart="155" from="e48" to="e1"/>
<trip id="156" depart="156" from="e1" to="e9"/>
<trip id="157" depart="157" from="e4" to="e24"/>
<trip id="158" depart="158" from="e48" to="e3"/>
<trip id="159" depart="159" from="e48" to="e1"/>
<trip id="160" depart="160" from="e48" to="e14"/>
<trip id="161" depart="161" from="e1" to="e4"/>
<trip id="162" depart="162" from="e1" to="e4"/>
<trip id="163" depart="163" from="e1" to="e24"/>
<trip id="164" depart="164" from="e48" to="e1"/>
<trip id="165" depart="165" from="e48" to="e1"/>
<trip id="166" depart="166" from="e48" to="e3"/>
<trip id="167" depart="167" from="e1" to="e24"/>
<trip id="168" depart="168" from="e1" to="e9"/>
<trip id="169" depart="169" from="e1" to="e23"/>
<trip id="170" depart="170" from="e48" to="e1"/>
<trip id="171" depart="171" from="e1" to="e4"/>
<trip id="172" depart="172" from="e4" to="e9"/>
<trip id="173" depart="173" from="e1" to="e4"/>
<trip id="174" depart="174" from="e1" to="e23"/>
<trip id="175" depart="175" from="e48" to="e9"/>
<trip id="176" depart="176" from="e1" to="e4"/>
<trip id="177" depart="177" from="e1" to="e23"/>
<trip id="178" depart="178" from="e4" to="e24"/>
<trip id="179" depart="179" from="e4" to="e24"/>
<trip id="180" depart="180" from="e1" to="e9"/>
<trip id="181" depart="181" from="e3" to="e6"/>
<trip id="182" depart="182" from="e4" to="e9"/>
<trip id="183" depart="183" from="e1" to="e9"/>
<trip id="184" depart="184" from="e48" to="e14"/>
<trip id="185" depart="185" from="e1" to="e24"/>
<trip id="186" depart="186" from="e48" to="e9"/>
<trip id="187" depart="187" from="e48" to="e9"/>
<trip id="188" depart="188" from="e48" to="e1"/>
<trip id="189" depart="189" from="e4" to="e24"/>
<trip id="190" depart="190" from="e4" to="e9"/>
<trip id="191" depart="191" from="e1" to="e23"/>
<trip id="192" depart="192" from="e1" to="e4"/>
<trip id="193" depart="193" from="e1" to="e4"/>
<trip id="194" depart="194" from="e1" to="e4"/>
<trip id="195" depart="195" from="e48" to="e3"/>
<trip id="196" depart="196" from="e48" to="e1"/>
<trip id="197" depart="197" from="e7" to="e1"/>
<trip id="198" depart="198" from="e1" to="e23"/>
<trip id="199" depart="199" from="e48" to="e9"/>
<trip id="200" depart="200" from="e24" to="e4"/>
<trip id="201" depart="201" from="e48" to="e1"/>
<trip id="202" depart="202" from="e48" to="e3"/>
<trip id="203" depart="203" from="e1" to="e4"/>
<trip id="204" depart="204" from="e4" to="e24"/>
<trip id="205" depart="205" from="e4" to="e24"/>
<trip id="206" depart="206" from="e22" to="e14"/>
<trip id="207" depart="207" from="e1" to="e9"/>
<trip id="208" depart="208" from="e48" to="e9"/>
<trip id="209" depart="209" from="e5" to="e6"/>
<trip id="210" depart="210" from="e9" to="e3"/>
<trip id="211" depart="211" from="e48" to="e9"/>
<trip id="212" depart="212" from="e4" to="e9"/>
<trip id="213" depart="213" from="e4" to="e9"/>
<trip id="214" depart="214" from="e48" to="e1"/>
<trip id="215" depart="215" from="e1" to="e4"/>
<trip id="216" depart="216" from="e16" to="e16"/>
<trip id="217" depart="217" from="e1" to="e23"/>
<trip id="218" depart="218" from="e4" to="e24"/>
<trip id="219" depart="219" from="e1" to="e23"/>
<trip id="220" depart="220" from="e48" to="e14"/>
<trip id="221" depart="221" from="e48" to="e3"/>
<trip id="222" depart="222" from="e4" to="e9"/>
<trip id="223" depart="223" from="e48" to="e9"/>
<trip id="224" depart="224" from="e1" to="e24"/>
<trip id="225" depart="225" from="e1" to="e23"/>
<trip id="226" depart="226" from="e4" to="e24"/>
<trip id="227" depart="227" from="e1" to="e24"/>
<trip id="228" depart="228" from="e2" to="e5"/>
<trip id="229" depart="229" from="e1" to="e24"/>
<trip id="230" depart="230" from="e48" to="e3"/>
<trip id="231" depart="231" from="e48" to="e1"/>
<trip id="232" depart="232" from="e1" to="e24"/>
<trip id="233" depart="233" from="e1" to="e24"/>
<trip id="234" depart="234" from="e48" to="e3"/>
<trip id="235" depart="235" from="e1" to="e24"/>
<trip id="236" depart="236" from="e48" to="e9"/>
<trip id="237" depart="237" from="e1" to="e24"/>
<trip id="238" depart="238" from="e9" to="e11"/>
<trip id="239" depart="239" from="e4" to="e24"/>
<trip id="240" depart="240" from="e48" to="e9"/>
<trip id="241" depart="241" from="e4" to="e9"/>
<trip id="242" depart="242" from="e4" to="e24"/>
<trip id="243" depart="243" from="e1" to="e23"/>
<trip id="244" depart="244" from="e14" to="e6"/>
<trip id="245" depart="245" from="e1" to="e23"/>
<trip id="246" depart="246" from="e1" to="e9"/>
<trip id="247" depart="247" from="e17" to="e3"/>
<trip id="248" depart="248" from="e48" to="e9"/>
<trip id="249" depart="249" from="e48" to="e9"/>
<trip id="250" depart="250" from="e1" to="e9"/>
<trip id="251" depart="251" from="e1" to="e4"/>
<trip id="252" depart="252" from="e48" to="e9"/>
<trip id="253" depart="253" from="e1" to="e9"/>
<trip id="254" depart="254" from="e48" to="e9"/>
<trip id="255" depart="255" from="e4" to="e24"/>
<trip id="256" depart="256" from="e1" to="e4"/>
<trip id="257" depart="257" from="e1" to="e4"/>
<trip id="258" depart="258" from="e4" to="e9"/>
<trip id="259" depart="259" from="e1" to="e23"/>
<trip id="260" depart="260" from="e24" to="e6"/>
<trip id="261" depart="261" from="e1" to="e23"/>
<trip id="262" depart="262" from="e4" to="e9"/>
<trip id="263" depart="263" from="e1" to="e23"/>
<trip id="264" depart="264" from="e4" to="e24"/>
<trip id="265" depart="265" from="e1" to="e23"/>
<trip id="266" depart="266" from="e48" to="e14"/>
<trip id="267" depart="267" from="e4" to="e24"/>
<trip id="268" depart="268" from="e48" to="e9"/>
<trip id="269" depart="269" from="e48" to="e9"/>
<trip id="270" depart="270" from="e4" to="e9"/>
<trip id="271" depart="271" from="e48" to="e9"/>
<trip id="272" depart="272" from="e48" to="e3"/>
<trip id="273" depart="273" from="e1" to="e4"/>
<trip id="274" depart="274" from="e1" to="e9"/>
<trip id="275" depart="275" from="e4" to="e24"/>
<trip id="276" depart="276" from="e48" to="e1"/>
<trip id="277" depart="277" from="e4" to="e9"/>
<trip id="278" depart="278" from="e48" to="e14"/>
<trip id="279" depart="279" from="e1" to="e9"/>
<trip id="280" depart="280" from="e1" to="e4"/>
<trip id="281" depart="281" from="e1" to="e23"/>
<trip id="282" depart="282" from="e4" to="e24"/>
<trip id="283" depart="283" from="e48" to="e3"/>
<trip id="284" depart="284" from="e4" to="e24"/>
<trip id="285" depart="285" from="e1" to="e4"/>
<trip id="286" depart="286" from="e4" to="e24"/>
<trip id="287" depart="287" from="e4" to="e9"/>
<trip id="288" depart="288" from="e1" to="e4"/>
<trip id="289" depart="289" from="e48" to="e9"/>
<trip id="290" depart="290" from="e48" to="e9"/>
<trip id="291" depart="291" from="e1" to="e23"/>
<trip id="292" depart="292" from="e48" to="e1"/>
<trip id="293" depart="293" from="e48" to="e9"/>
<trip id="294" depart="294" from="e48" to="e9"/>
<trip id="295" depart="295" from="e48" to="e9"/>
<trip id="296" depart="296" from="e8" to="e20"/>
<trip id="297" depart="297" from="e1" to="e9"/>
<trip id="298" depart="298" from="e4" to="e9"/>
<trip id="299" depart="299" from="e48" to="e1"/>
<trip id="300" depart="300" from="e1" to="e24"/>
<trip id="301" depart="301" from="e4" to="e9"/>
<trip id="302" depart="302" from="e48" to="e3"/>
<trip id="303" depart="303" from="e1" to="e4"/>
<trip id="304" depart="304" from="e4" to="e9"/>
<trip id="305" depart="305" from="e1" to="e24"/>
<trip id="306" depart="306" from="e4" to="e24"/>
<trip id="307" depart="307" from="e1" to="e4"/>
<trip id="308" depart="308" from="e48" to="e9"/>
<trip id="309" depart="309" from="e48" to="e1"/>
<trip id="310" depart="310" from="e4" to="e9"/>
<trip id="311" depart="311" from="e48" to="e1"/>
<trip id="312" depart="312" from="e48" to="e1"/>
<trip id="313" depart="313" from="e48" to="e3"/>
<trip id="314" depart="314" from="e1" to="e9"/>
<trip id="315" depart="315" from="e48" to="e1"/>
<trip id="316" depart="316" from="e5" to="e23"/>
<trip id="317" depart="317" from="e48" to="e3"/>
<trip id="318" depart="318" from="e1" to="e23"/>
<trip id="319" depart="319" from="e1" to="e4"/>
<trip id="320" depart="320" from="e4" to="e9"/>
<trip id="321" depart="321" from="e1" to="e23"/>
<trip id="322" depart="322" from="e48" to="e3"/>
<trip id="323" depart="323" from="e15" to="e2"/>
<trip id="324" depart="324" from="e48" to="e3"/>
<trip id="325" depart="325" from="e1" to="e9"/>
<trip id="326" depart="326" from="e4" to="e9"/>
<trip id="327" depart="327" from="e48" to="e3"/>
<trip id="328" depart="328" from="e1" to="e9"/>
<trip id="329" depart="329" from="e48" to="e3"/>
<trip id="330" depart="330" from="e48" to="e3"/>
<trip id="331" depart="331" from="e48" to="e1"/>
<trip id="332" depart="332" from="e1" to="e9"/>
<trip id="333" depart="333" from="e48" to="e3"/>
<trip id="334" depart="334" from="e48" to="e1"/>
<trip id="335" depart="335" from="e4" to="e9"/>
<trip id="336" depart="336" from="e22" to="e22"/>
<trip id="337" depart="337" from="e1" to="e4"/>
<trip id="338" depart="338" from="e4" to="e24"/>
<trip id="339" depart="339" from="e1" to="e4"/>
<trip id="340" depart="340" from="e48" to="e1"/>
<trip id="341" depart="341" from="e1" to="e9"/>
<trip id="342" depart="342" from="e1" to="e4"/>
<trip id="343" depart="343" from="e4" to="e9"/>
<trip id="344" depart="344" from="e4" to="e24"/>
<trip id="345" depart="345" from="e1" to="e23"/>
<trip id="346" depart="346" from="e48" to="e3"/>
<trip id="347" depart="347" from="e48" to="e3"/>
<trip id="348" depart="348" from="e4" to="e9"/>
<trip id="349" depart="349" from="e9" to="e20"/>
<trip id="350" depart="350" from="e48" to="e3"/>
<trip id="351" depart="351" from="e48" to="e3"/>
<trip id="352" depart="352" from="e1" to="e9"/>
<trip id="353" depart="353" from="e1" to="e23"/>
<trip id="354" depart="354" from="e48" to="e9"/>
<trip id="355" depart="355" from="e4" to="e24"/>
<trip id="356" depart="356" from="e4" to="e9"/>
<trip id="357" depart="357" from="e4" to="e9"/>
<trip id="358" depart="358" from="e1" to="e9"/>
<trip id="359" depart="359" from="e1" to="e9"/>
<trip id="360" depart="360" from="e6" to="e11"/>
<trip id="361" depart="361" from="e1" to="e4"/>
<trip id="362" depart="362" from="e1" to="e24"/>
<trip id="363" depart="363" from="e1" to="e24"/>
<trip id="364" depart="364" from="e1" to="e4"/>
<trip id="365" depart="365" from="e10" to="e2"/>
<trip id="366" depart="366" from="e1" to="e23"/>
<trip id="367" depart="367" from="e4" to="e9"/>
<trip id="368" depart="368" from="e48" to="e3"/>
<trip id="369" depart="369" from="e48" to="e1"/>
<trip id="370" depart="370" from="e48" to="e3"/>
<trip id="371" depart="371" from="e1" to="e9"/>
<trip id="372" depart="372" from="e4" to="e9"/>
<trip id="373" depart="373" from="e1" to="e24"/>
<trip id="374" depart="374" from="e1" to="e24"/>
<trip id="375" depart="375" from="e9" to="e12"/>
<trip id="376" depart="376" from="e4" to="e24"/>
<trip id="377" depart="377" from="e20" to="e4"/>
<trip id="378" depart="378" from="e48" to="e3"/>
<trip id="379" depart="379" from="e48" to="e14"/>
<trip id="380" depart="380" from="e4" to="e9"/>
<trip id="381" depart="381" from="e1" to="e24"/>
<trip id="382" depart="382" from="e48" to="e3"/>
<trip id="383" depart="383" from="e4" to="e9"/>
<trip id="384" depart="384" from="e4" to="e24"/>
<trip id="385" depart="385" from="e1" to="e24"/>
<trip id="386" depart="386" from="e1" to="e9"/>
<trip id="387" depart="387" from="e1" to="e4"/>
<trip id="388" depart="388" from="e1" to="e24"/>
<trip id="389" depart="389" from="e4" to="e24"/>
<trip id="390" depart="390" from="e1" to="e24"/>
<trip id="391" depart="391" from="e1" to="e9"/>
<trip id="392" depart="392" from="e4" to="e24"/>
<trip id="393" depart="393" from="e1" to="e24"/>
<trip id="394" depart="394" from="e48" to="e9"/>
<trip id="395" depart="395" from="e22" to="e7"/>
<trip id="396" depart="396" from="e48" to="e3"/>
<trip id="397" depart="397" from="e4" to="e24"/>
<trip id="398" depart="398" from="e1" to="e9"/>
<trip id="399" depart="399" from="e22" to="e5"/>
<trip id="400" depart="400" from="e4" to="e9"/>
<trip id="401" depart="401" from="e1" to="e24"/>
<trip id="402" depart="402" from="e4" to="e24"/>
<trip id="403" depart="403" from="e1" to="e4"/>
<trip id="404" depart="404" from="e1" to="e24"/>
<trip id="405" depart="405" from="e22" to="e7"/>
<trip id="406" depart="406" from="e15" to="e15"/>
<trip id="407" depart="407" from="e48" to="e3"/>
<trip id="408" depart="408" from="e1" to="e9"/>
<trip id="409" depart="409" from="e1" to="e23"/>
<trip id="410" depart="410" from="e4" to="e24"/>
<trip id="411" depart="411" from="e48" to="e9"/>
<trip id="412" depart="412" from="e4" to="e24"/>
<trip id="413" depart="413" from="e4" to="e9"/>
<trip id="414" depart="414" from="e1" to="e23"/>
<trip id="415" depart="415" from="e48" to="e1"/>
<trip id="416" depart="416" from="e48" to="e3"/>
<trip id="417" depart="417" from="e10" to="e11"/>
<trip id="418" depart="418" from="e1" to="e24"/>
<trip id="419" depart="419" from="e48" to="e3"/>
<trip id="420" depart="420" from="e1" to="e24"/>
<trip id="421" depart="421" from="e1" to="e23"/>
<trip id="422" depart="422" from="e1" to="e23"/>
<trip id="423" depart="423" from="e10" to="e17"/>
<trip id="424" depart="424" from="e1" to="e9"/>
<trip id="425" depart="425" from="e48" to="e9"/>
<trip id="426" depart="426" from="e1" to="e23"/>
<trip id="427" depart="427" from="e48" to="e9"/>
<trip id="428" depart="428" from="e48" to="e3"/>
<trip id="429" depart="429" from="e48" to="e14"/>
<trip id="430" depart="430" from="e4" to="e9"/>
<trip id="431" depart="431" from="e1" to="e24"/>
<trip id="432" depart="432" from="e48" to="e3"/>
<trip id="433" depart="433" from="e1" to="e23"/>
<trip id="434" depart="434" from="e48" to="e3"/>
<trip id="435" depart="435" from="e1" to="e23"/>
<trip id="436" depart="436" from="e1" to="e9"/>
<trip id="437" depart="437" from="e48" to="e9"/>
<trip id="438" depart="438" from="e1" to="e4"/>
<trip id="439" depart="439" from="e48" to="e9"/>
<trip id="440" depart="440" from="e48" to="e3"/>
<trip id="441" depart="441" from="e1" to="e23"/>
<trip id="442" depart="442" from="e48" to="e14"/>
<trip id="443" depart="443" from="e48" to="e3"/>
<trip id="444" depart="444" from="e4" to="e24"/>
<trip id="445" depart="445" from="e1" to="e4"/>
<trip id="446" depart="446" from="e4" to="e9"/>
<trip id="447" depart="447" from="e4" to="e24"/>
<trip id="448" depart="448" from="e48" to="e1"/>
<trip id="449" depart="449" from="e1" to="e9"/>
<trip id="450" depart="450" from="e4" to="e15"/>
<trip id="451" depart="451" from="e1" to="e24"/>
<trip id="452" depart="452" from="e1" to="e9"/>
<trip id="453" depart="453" from="e48" to="e9"/>
<trip id="454" depart="454" from="e48" to="e9"/>
<trip id="455" depart="455" from="e3" to="e15"/>
<trip id="456" depart="456" from="e48" to="e1"/>
<trip id="457" depart="457" from="e1" to="e4"/>
<trip id="458" depart="458" from="e1" to="e23"/>
<trip id="459" depart="459" from="e1" to="e23"/>
<trip id="460" depart="460" from="e1" to="e9"/>
<trip id="461" depart="461" from="e4" to="e9"/>
<trip id="462" depart="462" from="e48" to="e1"/>
<trip id="463" depart="463" from="e1" to="e24"/>
<trip id="464" depart="464" from="e4" to="e24"/>
<trip id="465" depart="465" from="e1" to="e4"/>
<trip id="466" depart="466" from="e4" to="e24"/>
<trip id="467" depart="467" from="e4" to="e24"/>
<trip id="468" depart="468" from="e22" to="e7"/>
<trip id="469" depart="469" from="e48" to="e1"/>
<trip id="470" depart="470" from="e4" to="e24"/>
<trip id="471" depart="471" from="e4" to="e24"/>
<trip id="472" depart="472" from="e48" to="e3"/>
<trip id="473" depart="473" from="e1" to="e4"/>
<trip id="474" depart="474" from="e48" to="e1"/>
<trip id="475" depart="475" from="e48" to="e3"/>
<trip id="476" depart="476" from="e1" to="e23"/>
<trip id="477" depart="477" from="e1" to="e4"/>
<trip id="478" depart="478" from="e1" to="e24"/>
<trip id="479" depart="479" from="e1" to="e24"/>
<trip id="480" depart="480" from="e48" to="e1"/>
<trip id="481" depart="481" from="e48" to="e3"/>
<trip id="482" depart="482" from="e1" to="e9"/>
<trip id="483" depart="483" from="e48" to="e9"/>
<trip id="484" depart="484" from="e15" to="e6"/>
<trip id="485" depart="485" from="e4" to="e9"/>
<trip id="486" depart="486" from="e1" to="e4"/>
<trip id="487" depart="487" from="e48" to="e3"/>
<trip id="488" depart="488" from="e1" to="e24"/>
<trip id="489" depart="489" from="e1" to="e13"/>
<trip id="490" depart="490" from="e4" to="e9"/>
<trip id="491" depart="491" from="e1" to="e9"/>
<trip id="492" depart="492" from="e1" to="e24"/>
<trip id="493" depart="493" from="e4" to="e24"/>
<trip id="494" depart="494" from="e1" to="e4"/>
<trip id="495" depart="495" from="e48" to="e1"/>
<trip id="496" depart="496" from="e1" to="e4"/>
<trip id="497" depart="497" from="e1" to="e9"/>
<trip id="498" depart="498" from="e48" to="e1"/>
<trip id="499" depart="499" from="e1" to="e4"/>
<trip id="500" depart="500" from="e48" to="e3"/>
<trip id="501" depart="501" from="e1" to="e9"/>
<trip id="502" depart="502" from="e1" to="e23"/>
<trip id="503" depart="503" from="e1" to="e9"/>
<trip id="504" depart="504" from="e1" to="e23"/>
<trip id="505" depart="505" from="e1" to="e4"/>
<trip id="506" depart="506" from="e4" to="e9"/>
<trip id="507" depart="507" from="e1" to="e24"/>
<trip id="508" depart="508" from="e48" to="e9"/>
<trip id="509" depart="509" from="e4" to="e9"/>
<trip id="510" depart="510" from="e4" to="e9"/>
<trip id="511" depart="511" from="e1" to="e23"/>
<trip id="512" depart="512" from="e1" to="e4"/>
<trip id="513" depart="513" from="e48" to="e1"/>
<trip id="514" depart="514" from="e1" to="e9"/>
<trip id="515" depart="515" from="e1" to="e9"/>
<trip id="516" depart="516" from="e4" to="e24"/>
<trip id="517" depart="517" from="e48" to="e3"/>
<trip id="518" depart="518" from="e48" to="e1"/>
<trip id="519" depart="519" from="e48" to="e3"/>
<trip id="520" depart="520" from="e1" to="e4"/>
<trip id="521" depart="521" from="e1" to="e23"/>
<trip id="522" depart="522" from="e4" to="e9"/>
<trip id="523" depart="523" from="e1" to="e23"/>
<trip id="524" depart="524" from="e3" to="e17"/>
<trip id="525" depart="525" from="e1" to="e9"/>
<trip id="526" depart="526" from="e48" to="e3"/>
<trip id="527" depart="527" from="e1" to="e24"/>
<trip id="528" depart="528" from="e14" to="e20"/>
<trip id="529" depart="529" from="e1" to="e4"/>
<trip id="530" depart="530" from="e1" to="e24"/>
<trip id="531" depart="531" from="e1" to="e23"/>
<trip id="532" depart="532" from="e4" to="e9"/>
<trip id="533" depart="533" from="e48" to="e9"/>
<trip id="534" depart="534" from="e48" to="e1"/>
<trip id="535" depart="535" from="e1" to="e24"/>
<trip id="536" depart="536" from="e48" to="e9"/>
<trip id="537" depart="537" from="e15" to="e15"/>
<trip id="538" depart="538" from="e1" to="e4"/>
<trip id="539" depart="539" from="e1" to="e9"/>
<trip id="540" depart="540" from="e1" to="e24"/>
<trip id="541" depart="541" from="e1" to="e9"/>
<trip id="542" depart="542" from="e1" to="e4"/>
<trip id="543" depart="543" from="e48" to="e9"/>
<trip id="544" depart="544" from="e15" to="e21"/>
<trip id="545" depart="545" from="e4" to="e24"/>
<trip id="546" depart="546" from="e1" to="e9"/>
<trip id="547" depart="547" from="e4" to="e24"/>
<trip id="548" depart="548" from="e1" to="e23"/>
<trip id="549" depart="549" from="e1" to="e4"/>
<trip id="550" depart="550" from="e1" to="e24"/>
<trip id="551" depart="551" from="e48" to="e1"/>
<trip id="552" depart="552" from="e48" to="e1"/>
<trip id="553" depart="553" from="e1" to="e9"/>
<trip id="554" depart="554" from="e4" to="e9"/>
<trip id="555" depart="555" from="e1" to="e24"/>
<trip id="556" depart="556" from="e2" to="e2"/>
<trip id="557" depart="557" from="e1" to="e9"/>
<trip id="558" depart="558" from="e4" to="e24"/>
<trip id="559" depart="559" from="e1" to="e4"/>
<trip id="560" depart="560" from="e1" to="e9"/>
<trip id="561" depart="561" from="e4" to="e24"/>
<trip id="562" depart="562" from="e48" to="e9"/>
<trip id="563" depart="563" from="e19" to="e24"/>
<trip id="564" depart="564" from="e4" to="e24"/>
<trip id="565" depart="565" from="e1" to="e23"/>
<trip id="566" depart="566" from="e1" to="e24"/>
<trip id="567" depart="567" from="e4" to="e9"/>
<trip id="568" depart="568" from="e48" to="e1"/>
<trip id="569" depart="569" from="e1" to="e24"/>
<trip id="570" depart="570" from="e1" to="e9"/>
<trip id="571" depart="571" from="e48" to="e9"/>
<trip id="572" depart="572" from="e48" to="e1"/>
<trip id="573" depart="573" from="e1" to="e24"/>
<trip id="574" depart="574" from="e1" to="e4"/>
<trip id="575" depart="575" from="e1" to="e9"/>
<trip id="576" depart="576" from="e48" to="e3"/>
<trip id="577" depart="577" from="e4" to="e9"/>
<trip id="578" depart="578" from="e10" to="e4"/>
<trip id="579" depart="579" from="e48" to="e1"/>
<trip id="580" depart="580" from="e48" to="e1"/>
<trip id="581" depart="581" from="e4" to="e9"/>
<trip id="582" depart="582" from="e4" to="e12"/>
<trip id="583" depart="583" from="e1" to="e4"/>
<trip id="584" depart="584" from="e4" to="e9"/>
<trip id="585" depart="585" from="e1" to="e9"/>
<trip id="586" depart="586" from="e4" to="e24"/>
<trip id="587" depart="587" from="e4" to="e24"/>
<trip id="588" depart="588" from="e4" to="e9"/>
<trip id="589" depart="589" from="e48" to="e9"/>
<trip id="590" depart="590" from="e48" to="e9"/>
<trip id="591" depart="591" from="e48" to="e1"/>
<trip id="592" depart="592" from="e4" to="e24"/>
<trip id="593" depart="593" from="e4" to="e9"/>
<trip id="594" depart="594" from="e4" to="e24"/>
<trip id="595" depart="595" from="e4" to="e24"/>
<trip id="596" depart="596" from="e48" to="e9"/>
<trip id="597" depart="597" from="e1" to="e24"/>
<trip id="598" depart="598" from="e1" to="e4"/>
<trip id="599" depart="599" from="e1" to="e9"/>
<trip id="600" depart="600" from="e1" to="e24"/>
<trip id="601" depart="601" from="e48" to="e3"/>
<trip id="602" depart="602" from="e14" to="e6"/>
<trip id="603" depart="603" from="e1" to="e23"/>
<trip id="604" depart="604" from="e1" to="e4"/>
<trip id="605" depart="605" from="e6" to="e4"/>
<trip id="606" depart="606" from="e7" to="e7"/>
<trip id="607" depart="607" from="e48" to="e1"/>
<trip id="608" depart="608" from="e48" to="e3"/>
<trip id="609" depart="609" from="e1" to="e23"/>
<trip id="610" depart="610" from="e1" to="e23"/>
<trip id="611" depart="611" from="e4" to="e24"/>
<trip id="612" depart="612" from="e48" to="e9"/>
<trip id="613" depart="613" from="e4" to="e9"/>