<?xml version="1.0" encoding="UTF-8"?>

<!-- generated on 2022-03-04 22:40:04 by Eclipse SUMO netconvert Version 1.12.0
<configuration xmlns:xsi="http://www.w3.org/2001/XMLSchema-instance" xsi:noNamespaceSchemaLocation="http://sumo.dlr.de/xsd/netconvertConfiguration.xsd">

    <input>
        <node-files value="nets/lucerne.nod.xml"/>
        <edge-files value="nets/lucerne.edg.xml"/>
    </input>

    <output>
        <output-file value="nets/lucerne.net.xml"/>
    </output>

    <report>
        <aggregate-warnings value="5"/>
    </report>

</configuration>
-->

<net version="1.9" junctionCornerDetail="5" limitTurnSpeed="5.50" xmlns:xsi="http://www.w3.org/2001/XMLSchema-instance" xsi:noNamespaceSchemaLocation="http://sumo.dlr.de/xsd/net_file.xsd">

    <location netOffset="50.00,1200.00" convBoundary="0.00,0.00,1250.00,1200.00" origBoundary="-50.00,-1200.00,1200.00,0.00" projParameter="!"/>

    <edge id=":1_0" function="internal">
        <lane id=":1_0_0" index="0" speed="3.65" length="4.67" shape="751.43,1199.28 751.25,1200.72 750.72,1201.43 749.82,1201.43 748.57,1200.72"/>
    </edge>
    <edge id=":10_0" function="internal">
        <lane id=":10_0_0" index="0" disallow="pedestrian" speed="20.00" length="20.80" shape="445.20,410.40 445.20,389.60"/>
        <lane id=":10_0_1" index="1" disallow="pedestrian" speed="20.00" length="20.80" shape="448.40,410.40 448.40,389.60"/>
    </edge>
    <edge id=":10_2" function="internal">
        <lane id=":10_2_0" index="0" disallow="pedestrian" speed="9.26" length="5.01" shape="448.40,410.40 449.11,405.44"/>
    </edge>
    <edge id=":10_3" function="internal">
        <lane id=":10_3_0" index="0" disallow="pedestrian" speed="3.65" length="1.44" shape="448.40,410.40 449.20,409.20"/>
    </edge>
    <edge id=":10_12" function="internal">
        <lane id=":10_12_0" index="0" disallow="pedestrian" speed="9.26" length="14.34" shape="449.11,405.44 449.15,405.15 451.40,401.40 455.15,399.15 460.40,398.40"/>
    </edge>
    <edge id=":10_13" function="internal">
        <lane id=":10_13_0" index="0" disallow="pedestrian" speed="3.65" length="3.23" shape="449.20,409.20 450.00,408.80 450.80,409.20 451.60,410.40"/>
    </edge>
    <edge id=":10_4" function="internal">
        <lane id=":10_4_0" index="0" disallow="pedestrian" speed="6.51" length="9.03" shape="460.40,404.80 457.95,405.15 456.20,406.20 455.15,407.95 454.80,410.40"/>
        <lane id=":10_4_1" index="1" disallow="pedestrian" speed="8.00" length="14.19" shape="460.40,401.60 456.55,402.15 453.80,403.80 452.15,406.55 451.60,410.40"/>
    </edge>
    <edge id=":10_6" function="internal">
        <lane id=":10_6_0" index="0" disallow="pedestrian" speed="9.26" length="19.35" shape="460.40,401.60 455.15,400.85 451.40,398.60 449.15,394.85 448.40,389.60"/>
    </edge>
    <edge id=":10_7" function="internal">
        <lane id=":10_7_0" index="0" disallow="pedestrian" speed="3.65" length="2.34" shape="460.40,401.60 459.20,400.80 458.80,400.00"/>
    </edge>
    <edge id=":10_14" function="internal">
        <lane id=":10_14_0" index="0" disallow="pedestrian" speed="3.65" length="2.34" shape="458.80,400.00 459.20,399.20 460.40,398.40"/>
    </edge>
    <edge id=":10_8" function="internal">
        <lane id=":10_8_0" index="0" disallow="pedestrian" speed="6.51" length="9.03" shape="454.80,389.60 455.15,392.05 456.20,393.80 457.95,394.85 460.40,395.20"/>
    </edge>
    <edge id=":10_9" function="internal">
        <lane id=":10_9_0" index="0" disallow="pedestrian" speed="20.00" length="20.80" shape="454.80,389.60 454.80,410.40"/>
        <lane id=":10_9_1" index="1" disallow="pedestrian" speed="20.00" length="20.80" shape="451.60,389.60 451.60,410.40"/>
    </edge>
    <edge id=":10_11" function="internal">
        <lane id=":10_11_0" index="0" disallow="pedestrian" speed="3.65" length="1.44" shape="451.60,389.60 450.80,390.80"/>
    </edge>
    <edge id=":10_15" function="internal">
        <lane id=":10_15_0" index="0" disallow="pedestrian" speed="3.65" length="3.23" shape="450.80,390.80 450.00,391.20 449.20,390.80 448.40,389.60"/>
    </edge>
    <edge id=":11_0" function="internal">
        <lane id=":11_0_0" index="0" disallow="pedestrian" speed="20.00" length="12.40" shape="556.20,404.80 543.80,404.80"/>
        <lane id=":11_0_1" index="1" disallow="pedestrian" speed="20.00" length="12.40" shape="556.20,401.60 543.80,401.60"/>
    </edge>
    <edge id=":11_2" function="internal">
        <lane id=":11_2_0" index="0" disallow="pedestrian" speed="8.49" length="3.28" shape="556.20,401.60 552.99,400.89"/>
    </edge>
    <edge id=":11_3" function="internal">
        <lane id=":11_3_0" index="0" disallow="pedestrian" speed="3.65" length="1.44" shape="556.20,401.60 555.00,400.80"/>
    </edge>
    <edge id=":11_11" function="internal">
        <lane id=":11_11_0" index="0" disallow="pedestrian" speed="8.49" length="12.82" shape="552.99,400.89 552.79,400.85 550.35,398.60 548.89,394.85 548.40,389.60"/>
    </edge>
    <edge id=":11_12" function="internal">
        <lane id=":11_12_0" index="0" disallow="pedestrian" speed="3.65" length="3.23" shape="555.00,400.80 554.60,400.00 555.00,399.20 556.20,398.40"/>
    </edge>
    <edge id=":11_4" function="internal">
        <lane id=":11_4_0" index="0" disallow="pedestrian" speed="6.25" length="8.24" shape="551.60,389.60 551.89,392.05 552.75,393.80 554.19,394.85 556.20,395.20"/>
    </edge>
    <edge id=":11_5" function="internal">
        <lane id=":11_5_0" index="0" disallow="pedestrian" speed="8.49" length="16.11" shape="551.60,389.60 551.11,394.85 549.65,398.60 547.21,400.85 543.80,401.60"/>
    </edge>
    <edge id=":11_6" function="internal">
        <lane id=":11_6_0" index="0" disallow="pedestrian" speed="3.65" length="4.67" shape="551.60,389.60 550.80,390.80 550.00,391.20 549.20,390.80 548.40,389.60"/>
    </edge>
    <edge id=":11_7" function="internal">
        <lane id=":11_7_0" index="0" disallow="pedestrian" speed="6.25" length="8.24" shape="543.80,395.20 545.81,394.85 547.25,393.80 548.11,392.05 548.40,389.60"/>
    </edge>
    <edge id=":11_8" function="internal">
        <lane id=":11_8_0" index="0" disallow="pedestrian" speed="20.00" length="12.40" shape="543.80,395.20 556.20,395.20"/>
        <lane id=":11_8_1" index="1" disallow="pedestrian" speed="20.00" length="12.40" shape="543.80,398.40 556.20,398.40"/>
    </edge>
    <edge id=":11_10" function="internal">
        <lane id=":11_10_0" index="0" disallow="pedestrian" speed="3.65" length="1.44" shape="543.80,398.40 545.00,399.20"/>
    </edge>
    <edge id=":11_13" function="internal">
        <lane id=":11_13_0" index="0" disallow="pedestrian" speed="3.65" length="3.23" shape="545.00,399.20 545.40,400.00 545.00,400.80 543.80,401.60"/>
    </edge>
    <edge id=":12_0" function="internal">
        <lane id=":12_0_0" index="0" disallow="pedestrian" speed="8.55" length="10.55" shape="648.92,408.58 647.63,406.93 645.65,405.74 642.97,405.04 639.60,404.80"/>
    </edge>
    <edge id=":12_1" function="internal">
        <lane id=":12_1_0" index="0" disallow="pedestrian" speed="20.00" length="18.91" shape="648.92,408.58 646.52,403.32 645.44,399.47 645.17,395.43 645.20,389.60"/>
        <lane id=":12_1_1" index="1" disallow="pedestrian" speed="20.00" length="18.91" shape="651.79,407.15 649.57,402.29 648.59,398.73 648.37,394.99 648.40,389.60"/>
    </edge>
    <edge id=":12_3" function="internal">
        <lane id=":12_3_0" index="0" disallow="pedestrian" speed="3.65" length="1.44" shape="651.79,407.15 651.96,405.72"/>
    </edge>
    <edge id=":12_11" function="internal">
        <lane id=":12_11_0" index="0" disallow="pedestrian" speed="3.65" length="3.23" shape="651.96,405.72 652.50,405.00 653.40,405.00 654.65,405.72"/>
    </edge>
    <edge id=":12_4" function="internal">
        <lane id=":12_4_0" index="0" disallow="pedestrian" speed="20.00" length="15.93" shape="654.80,389.60 654.75,394.11 654.90,397.24 655.68,400.22 657.51,404.29"/>
        <lane id=":12_4_1" index="1" disallow="pedestrian" speed="20.00" length="15.93" shape="651.60,389.60 651.56,394.55 651.75,397.98 652.62,401.26 654.65,405.72"/>
    </edge>
    <edge id=":12_6" function="internal">
        <lane id=":12_6_0" index="0" disallow="pedestrian" speed="9.26" length="5.15" shape="651.60,389.60 650.87,394.70"/>
    </edge>
    <edge id=":12_7" function="internal">
        <lane id=":12_7_0" index="0" disallow="pedestrian" speed="3.65" length="1.44" shape="651.60,389.60 650.80,390.80"/>
    </edge>
    <edge id=":12_12" function="internal">
        <lane id=":12_12_0" index="0" disallow="pedestrian" speed="9.26" length="14.20" shape="650.87,394.70 650.85,394.85 648.60,398.60 644.85,400.85 639.60,401.60"/>
    </edge>
    <edge id=":12_13" function="internal">
        <lane id=":12_13_0" index="0" disallow="pedestrian" speed="3.65" length="3.23" shape="650.80,390.80 650.00,391.20 649.20,390.80 648.40,389.60"/>
    </edge>
    <edge id=":12_8" function="internal">
        <lane id=":12_8_0" index="0" disallow="pedestrian" speed="6.51" length="9.03" shape="639.60,395.20 642.05,394.85 643.80,393.80 644.85,392.05 645.20,389.60"/>
    </edge>
    <edge id=":12_9" function="internal">
        <lane id=":12_9_0" index="0" disallow="pedestrian" speed="10.92" length="17.64" shape="639.60,398.40 644.81,398.86 649.06,400.23 652.33,402.52 654.65,405.72"/>
    </edge>
    <edge id=":12_10" function="internal">
        <lane id=":12_10_0" index="0" disallow="pedestrian" speed="3.65" length="2.34" shape="639.60,398.40 640.80,399.20 641.20,400.00"/>
    </edge>
    <edge id=":12_14" function="internal">
        <lane id=":12_14_0" index="0" disallow="pedestrian" speed="3.65" length="2.34" shape="641.20,400.00 640.80,400.80 639.60,401.60"/>
    </edge>
    <edge id=":13_0" function="internal">
        <lane id=":13_0_0" index="0" disallow="pedestrian" speed="20.00" length="12.40" shape="445.20,306.20 445.20,293.80"/>
        <lane id=":13_0_1" index="1" disallow="pedestrian" speed="20.00" length="12.40" shape="448.40,306.20 448.40,293.80"/>
    </edge>
    <edge id=":13_2" function="internal">
        <lane id=":13_2_0" index="0" disallow="pedestrian" speed="8.49" length="3.28" shape="448.40,306.20 449.11,302.99"/>
    </edge>
    <edge id=":13_3" function="internal">
        <lane id=":13_3_0" index="0" disallow="pedestrian" speed="3.65" length="1.44" shape="448.40,306.20 449.20,305.00"/>
    </edge>
    <edge id=":13_11" function="internal">
        <lane id=":13_11_0" index="0" disallow="pedestrian" speed="8.49" length="12.82" shape="449.11,302.99 449.15,302.79 451.40,300.35 455.15,298.89 460.40,298.40"/>
    </edge>
    <edge id=":13_12" function="internal">
        <lane id=":13_12_0" index="0" disallow="pedestrian" speed="3.65" length="3.23" shape="449.20,305.00 450.00,304.60 450.80,305.00 451.60,306.20"/>
    </edge>
    <edge id=":13_4" function="internal">
        <lane id=":13_4_0" index="0" disallow="pedestrian" speed="6.25" length="8.24" shape="460.40,301.60 457.95,301.89 456.20,302.75 455.15,304.19 454.80,306.20"/>
    </edge>
    <edge id=":13_5" function="internal">
        <lane id=":13_5_0" index="0" disallow="pedestrian" speed="8.49" length="16.11" shape="460.40,301.60 455.15,301.11 451.40,299.65 449.15,297.21 448.40,293.80"/>
    </edge>
    <edge id=":13_6" function="internal">
        <lane id=":13_6_0" index="0" disallow="pedestrian" speed="3.65" length="4.67" shape="460.40,301.60 459.20,300.80 458.80,300.00 459.20,299.20 460.40,298.40"/>
    </edge>
    <edge id=":13_7" function="internal">
        <lane id=":13_7_0" index="0" disallow="pedestrian" speed="6.25" length="8.24" shape="454.80,293.80 455.15,295.81 456.20,297.25 457.95,298.11 460.40,298.40"/>
    </edge>
    <edge id=":13_8" function="internal">
        <lane id=":13_8_0" index="0" disallow="pedestrian" speed="20.00" length="12.40" shape="454.80,293.80 454.80,306.20"/>
        <lane id=":13_8_1" index="1" disallow="pedestrian" speed="20.00" length="12.40" shape="451.60,293.80 451.60,306.20"/>
    </edge>
    <edge id=":13_10" function="internal">
        <lane id=":13_10_0" index="0" disallow="pedestrian" speed="3.65" length="1.44" shape="451.60,293.80 450.80,295.00"/>
    </edge>
    <edge id=":13_13" function="internal">
        <lane id=":13_13_0" index="0" disallow="pedestrian" speed="3.65" length="3.23" shape="450.80,295.00 450.00,295.40 449.20,295.00 448.40,293.80"/>
    </edge>
    <edge id=":14_0" function="internal">
        <lane id=":14_0_0" index="0" disallow="pedestrian" speed="6.51" length="9.03" shape="548.40,307.20 548.05,304.75 547.00,303.00 545.25,301.95 542.80,301.60"/>
    </edge>
    <edge id=":14_1" function="internal">
        <lane id=":14_1_0" index="0" disallow="pedestrian" speed="14.00" length="14.40" shape="548.40,307.20 548.40,292.80"/>
    </edge>
    <edge id=":14_2" function="internal">
        <lane id=":14_2_0" index="0" disallow="pedestrian" speed="8.00" length="4.07" shape="548.40,307.20 548.95,303.35 549.04,303.20"/>
    </edge>
    <edge id=":14_3" function="internal">
        <lane id=":14_3_0" index="0" disallow="pedestrian" speed="3.65" length="1.44" shape="548.40,307.20 549.20,306.00"/>
    </edge>
    <edge id=":14_16" function="internal">
        <lane id=":14_16_0" index="0" disallow="pedestrian" speed="8.00" length="10.13" shape="549.04,303.20 550.60,300.60 553.35,298.95 557.20,298.40"/>
    </edge>
    <edge id=":14_17" function="internal">
        <lane id=":14_17_0" index="0" disallow="pedestrian" speed="3.65" length="3.23" shape="549.20,306.00 550.00,305.60 550.80,306.00 551.60,307.20"/>
    </edge>
    <edge id=":14_4" function="internal">
        <lane id=":14_4_0" index="0" disallow="pedestrian" speed="6.51" length="9.03" shape="557.20,301.60 554.75,301.95 553.00,303.00 551.95,304.75 551.60,307.20"/>
    </edge>
    <edge id=":14_5" function="internal">
        <lane id=":14_5_0" index="0" disallow="pedestrian" speed="14.00" length="14.40" shape="557.20,301.60 542.80,301.60"/>
    </edge>
    <edge id=":14_6" function="internal">
        <lane id=":14_6_0" index="0" disallow="pedestrian" speed="8.00" length="14.19" shape="557.20,301.60 553.35,301.05 550.60,299.40 548.95,296.65 548.40,292.80"/>
    </edge>
    <edge id=":14_7" function="internal">
        <lane id=":14_7_0" index="0" disallow="pedestrian" speed="3.65" length="4.67" shape="557.20,301.60 556.00,300.80 555.60,300.00 556.00,299.20 557.20,298.40"/>
    </edge>
    <edge id=":14_8" function="internal">
        <lane id=":14_8_0" index="0" disallow="pedestrian" speed="6.51" length="9.03" shape="551.60,292.80 551.95,295.25 553.00,297.00 554.75,298.05 557.20,298.40"/>
    </edge>
    <edge id=":14_9" function="internal">
        <lane id=":14_9_0" index="0" disallow="pedestrian" speed="14.00" length="14.40" shape="551.60,292.80 551.60,307.20"/>
    </edge>
    <edge id=":14_10" function="internal">
        <lane id=":14_10_0" index="0" disallow="pedestrian" speed="8.00" length="4.07" shape="551.60,292.80 551.05,296.65 550.96,296.80"/>
    </edge>
    <edge id=":14_11" function="internal">
        <lane id=":14_11_0" index="0" disallow="pedestrian" speed="3.65" length="1.44" shape="551.60,292.80 550.80,294.00"/>
    </edge>
    <edge id=":14_18" function="internal">
        <lane id=":14_18_0" index="0" disallow="pedestrian" speed="8.00" length="10.13" shape="550.96,296.80 549.40,299.40 546.65,301.05 542.80,301.60"/>
    </edge>
    <edge id=":14_19" function="internal">
        <lane id=":14_19_0" index="0" disallow="pedestrian" speed="3.65" length="3.23" shape="550.80,294.00 550.00,294.40 549.20,294.00 548.40,292.80"/>
    </edge>
    <edge id=":14_12" function="internal">
        <lane id=":14_12_0" index="0" disallow="pedestrian" speed="6.51" length="9.03" shape="542.80,298.40 545.25,298.05 547.00,297.00 548.05,295.25 548.40,292.80"/>
    </edge>
    <edge id=":14_13" function="internal">
        <lane id=":14_13_0" index="0" disallow="pedestrian" speed="14.00" length="14.40" shape="542.80,298.40 557.20,298.40"/>
    </edge>
    <edge id=":14_14" function="internal">
        <lane id=":14_14_0" index="0" disallow="pedestrian" speed="8.00" length="14.19" shape="542.80,298.40 546.65,298.95 549.40,300.60 551.05,303.35 551.60,307.20"/>
    </edge>
    <edge id=":14_15" function="internal">
        <lane id=":14_15_0" index="0" disallow="pedestrian" speed="3.65" length="4.67" shape="542.80,298.40 544.00,299.20 544.40,300.00 544.00,300.80 542.80,301.60"/>
    </edge>
    <edge id=":15_0" function="internal">
        <lane id=":15_0_0" index="0" disallow="pedestrian" speed="6.25" length="8.24" shape="645.20,306.20 644.85,304.19 643.80,302.75 642.05,301.89 639.60,301.60"/>
    </edge>
    <edge id=":15_1" function="internal">
        <lane id=":15_1_0" index="0" disallow="pedestrian" speed="20.00" length="12.40" shape="645.20,306.20 645.20,293.80"/>
        <lane id=":15_1_1" index="1" disallow="pedestrian" speed="20.00" length="12.40" shape="648.40,306.20 648.40,293.80"/>
    </edge>
    <edge id=":15_3" function="internal">
        <lane id=":15_3_0" index="0" disallow="pedestrian" speed="3.65" length="1.44" shape="648.40,306.20 649.20,305.00"/>
    </edge>
    <edge id=":15_11" function="internal">
        <lane id=":15_11_0" index="0" disallow="pedestrian" speed="3.65" length="3.23" shape="649.20,305.00 650.00,304.60 650.80,305.00 651.60,306.20"/>
    </edge>
    <edge id=":15_4" function="internal">
        <lane id=":15_4_0" index="0" disallow="pedestrian" speed="20.00" length="12.40" shape="654.80,293.80 654.80,306.20"/>
        <lane id=":15_4_1" index="1" disallow="pedestrian" speed="20.00" length="12.40" shape="651.60,293.80 651.60,306.20"/>
    </edge>
    <edge id=":15_6" function="internal">
        <lane id=":15_6_0" index="0" disallow="pedestrian" speed="8.49" length="3.28" shape="651.60,293.80 650.89,297.01"/>
    </edge>
    <edge id=":15_7" function="internal">
        <lane id=":15_7_0" index="0" disallow="pedestrian" speed="3.65" length="1.44" shape="651.60,293.80 650.80,295.00"/>
    </edge>
    <edge id=":15_12" function="internal">
        <lane id=":15_12_0" index="0" disallow="pedestrian" speed="8.49" length="12.82" shape="650.89,297.01 650.85,297.21 648.60,299.65 644.85,301.11 639.60,301.60"/>
    </edge>
    <edge id=":15_13" function="internal">
        <lane id=":15_13_0" index="0" disallow="pedestrian" speed="3.65" length="3.23" shape="650.80,295.00 650.00,295.40 649.20,295.00 648.40,293.80"/>
    </edge>
    <edge id=":15_8" function="internal">
        <lane id=":15_8_0" index="0" disallow="pedestrian" speed="6.25" length="8.24" shape="639.60,298.40 642.05,298.11 643.80,297.25 644.85,295.81 645.20,293.80"/>
    </edge>
    <edge id=":15_9" function="internal">
        <lane id=":15_9_0" index="0" disallow="pedestrian" speed="8.49" length="16.11" shape="639.60,298.40 644.85,298.89 648.60,300.35 650.85,302.79 651.60,306.20"/>
    </edge>
    <edge id=":15_10" function="internal">
        <lane id=":15_10_0" index="0" disallow="pedestrian" speed="3.65" length="4.67" shape="639.60,298.40 640.80,299.20 641.20,300.00 640.80,300.80 639.60,301.60"/>
    </edge>
    <edge id=":16_0" function="internal">
        <lane id=":16_0_0" index="0" disallow="pedestrian" speed="8.55" length="10.55" shape="445.20,210.40 444.96,207.03 444.26,204.35 443.07,202.37 441.42,201.08"/>
        <lane id=":16_0_1" index="1" disallow="pedestrian" speed="9.80" length="14.09" shape="448.40,210.40 448.05,206.11 447.01,202.65 445.28,200.02 442.85,198.21"/>
    </edge>
    <edge id=":16_2" function="internal">
        <lane id=":16_2_0" index="0" disallow="pedestrian" speed="9.26" length="19.35" shape="448.40,210.40 449.15,205.15 451.40,201.40 455.15,199.15 460.40,198.40"/>
    </edge>
    <edge id=":16_3" function="internal">
        <lane id=":16_3_0" index="0" disallow="pedestrian" speed="3.65" length="2.34" shape="448.40,210.40 449.20,209.20 450.00,208.80"/>
    </edge>
    <edge id=":16_12" function="internal">
        <lane id=":16_12_0" index="0" disallow="pedestrian" speed="3.65" length="2.34" shape="450.00,208.80 450.80,209.20 451.60,210.40"/>
    </edge>
    <edge id=":16_4" function="internal">
        <lane id=":16_4_0" index="0" disallow="pedestrian" speed="6.51" length="9.03" shape="460.40,204.80 457.95,205.15 456.20,206.20 455.15,207.95 454.80,210.40"/>
    </edge>
    <edge id=":16_5" function="internal">
        <lane id=":16_5_0" index="0" disallow="pedestrian" speed="23.24" length="18.91" shape="460.40,204.80 454.57,204.83 450.53,204.56 446.68,203.48 441.42,201.08"/>
        <lane id=":16_5_1" index="1" disallow="pedestrian" speed="22.35" length="18.91" shape="460.40,201.60 455.01,201.63 451.27,201.41 447.71,200.43 442.85,198.21"/>
    </edge>
    <edge id=":16_7" function="internal">
        <lane id=":16_7_0" index="0" disallow="pedestrian" speed="3.65" length="1.44" shape="460.40,201.60 459.20,200.80"/>
    </edge>
    <edge id=":16_13" function="internal">
        <lane id=":16_13_0" index="0" disallow="pedestrian" speed="3.65" length="3.23" shape="459.20,200.80 458.80,200.00 459.20,199.20 460.40,198.40"/>
    </edge>
    <edge id=":16_8" function="internal">
        <lane id=":16_8_0" index="0" disallow="pedestrian" speed="20.45" length="15.93" shape="445.71,192.49 449.78,194.32 452.76,195.10 455.89,195.25 460.40,195.20"/>
        <lane id=":16_8_1" index="1" disallow="pedestrian" speed="21.42" length="15.93" shape="444.28,195.35 448.74,197.38 452.02,198.25 455.45,198.44 460.40,198.40"/>
    </edge>
    <edge id=":16_10" function="internal">
        <lane id=":16_10_0" index="0" disallow="pedestrian" speed="10.92" length="3.64" shape="444.28,195.35 447.24,197.49"/>
    </edge>
    <edge id=":16_11" function="internal">
        <lane id=":16_11_0" index="0" disallow="pedestrian" speed="3.65" length="1.44" shape="444.28,195.35 445.00,196.60"/>
    </edge>
    <edge id=":16_14" function="internal">
        <lane id=":16_14_0" index="0" disallow="pedestrian" speed="10.92" length="14.00" shape="447.24,197.49 447.48,197.67 449.77,200.94 451.14,205.19 451.60,210.40"/>
    </edge>
    <edge id=":16_15" function="internal">
        <lane id=":16_15_0" index="0" disallow="pedestrian" speed="3.65" length="3.23" shape="445.00,196.60 445.00,197.50 444.28,198.04 442.85,198.21"/>
    </edge>
    <edge id=":17_0" function="internal">
        <lane id=":17_0_0" index="0" disallow="pedestrian" speed="6.25" length="8.24" shape="548.40,210.40 548.11,207.95 547.25,206.20 545.81,205.15 543.80,204.80"/>
    </edge>
    <edge id=":17_1" function="internal">
        <lane id=":17_1_0" index="0" disallow="pedestrian" speed="8.49" length="16.11" shape="548.40,210.40 548.89,205.15 550.35,201.40 552.79,199.15 556.20,198.40"/>
    </edge>
    <edge id=":17_2" function="internal">
        <lane id=":17_2_0" index="0" disallow="pedestrian" speed="3.65" length="4.67" shape="548.40,210.40 549.20,209.20 550.00,208.80 550.80,209.20 551.60,210.40"/>
    </edge>
    <edge id=":17_3" function="internal">
        <lane id=":17_3_0" index="0" disallow="pedestrian" speed="6.25" length="8.24" shape="556.20,204.80 554.19,205.15 552.75,206.20 551.89,207.95 551.60,210.40"/>
    </edge>
    <edge id=":17_4" function="internal">
        <lane id=":17_4_0" index="0" disallow="pedestrian" speed="20.00" length="12.40" shape="556.20,204.80 543.80,204.80"/>
        <lane id=":17_4_1" index="1" disallow="pedestrian" speed="20.00" length="12.40" shape="556.20,201.60 543.80,201.60"/>
    </edge>
    <edge id=":17_6" function="internal">
        <lane id=":17_6_0" index="0" disallow="pedestrian" speed="3.65" length="1.44" shape="556.20,201.60 555.00,200.80"/>
    </edge>
    <edge id=":17_11" function="internal">
        <lane id=":17_11_0" index="0" disallow="pedestrian" speed="3.65" length="3.23" shape="555.00,200.80 554.60,200.00 555.00,199.20 556.20,198.40"/>
    </edge>
    <edge id=":17_7" function="internal">
        <lane id=":17_7_0" index="0" disallow="pedestrian" speed="20.00" length="12.40" shape="543.80,195.20 556.20,195.20"/>
        <lane id=":17_7_1" index="1" disallow="pedestrian" speed="20.00" length="12.40" shape="543.80,198.40 556.20,198.40"/>
    </edge>
    <edge id=":17_9" function="internal">
        <lane id=":17_9_0" index="0" disallow="pedestrian" speed="8.49" length="3.28" shape="543.80,198.40 547.01,199.11"/>
    </edge>
    <edge id=":17_10" function="internal">
        <lane id=":17_10_0" index="0" disallow="pedestrian" speed="3.65" length="1.44" shape="543.80,198.40 545.00,199.20"/>
    </edge>
    <edge id=":17_12" function="internal">
        <lane id=":17_12_0" index="0" disallow="pedestrian" speed="8.49" length="12.82" shape="547.01,199.11 547.21,199.15 549.65,201.40 551.11,205.15 551.60,210.40"/>
    </edge>
    <edge id=":17_13" function="internal">
        <lane id=":17_13_0" index="0" disallow="pedestrian" speed="3.65" length="3.23" shape="545.00,199.20 545.40,200.00 545.00,200.80 543.80,201.60"/>
    </edge>
    <edge id=":18_0" function="internal">
        <lane id=":18_0_0" index="0" disallow="pedestrian" speed="6.51" length="9.03" shape="645.20,210.40 644.85,207.95 643.80,206.20 642.05,205.15 639.60,204.80"/>
    </edge>
    <edge id=":18_1" function="internal">
        <lane id=":18_1_0" index="0" disallow="pedestrian" speed="14.24" length="18.88" shape="645.20,210.40 645.53,204.65 646.52,199.79 648.17,195.82 650.48,192.73"/>
        <lane id=":18_1_1" index="1" disallow="pedestrian" speed="13.28" length="16.37" shape="648.40,210.40 648.67,205.29 649.49,201.02 650.84,197.59 652.74,194.99"/>
    </edge>
    <edge id=":18_3" function="internal">
        <lane id=":18_3_0" index="0" disallow="pedestrian" speed="3.65" length="1.44" shape="648.40,210.40 649.20,209.20"/>
    </edge>
    <edge id=":18_12" function="internal">
        <lane id=":18_12_0" index="0" disallow="pedestrian" speed="3.65" length="3.23" shape="649.20,209.20 650.00,208.80 650.80,209.20 651.60,210.40"/>
    </edge>
    <edge id=":18_4" function="internal">
        <lane id=":18_4_0" index="0" disallow="pedestrian" speed="11.13" length="11.37" shape="657.27,199.52 656.19,201.13 655.42,203.47 654.95,206.57 654.80,210.40"/>
        <lane id=":18_4_1" index="1" disallow="pedestrian" speed="12.25" length="13.87" shape="655.01,197.26 653.52,199.36 652.45,202.25 651.81,205.93 651.60,210.40"/>
    </edge>
    <edge id=":18_6" function="internal">
        <lane id=":18_6_0" index="0" disallow="pedestrian" speed="13.28" length="2.34" shape="655.01,197.26 653.12,198.64"/>
    </edge>
    <edge id=":18_7" function="internal">
        <lane id=":18_7_0" index="0" disallow="pedestrian" speed="3.65" length="1.29" shape="655.01,197.26 653.74,197.51"/>
    </edge>
    <edge id=":18_13" function="internal">
        <lane id=":18_13_0" index="0" disallow="pedestrian" speed="13.28" length="14.03" shape="653.12,198.64 652.41,199.16 648.98,200.51 644.71,201.33 639.60,201.60"/>
    </edge>
    <edge id=":18_14" function="internal">
        <lane id=":18_14_0" index="0" disallow="pedestrian" speed="3.65" length="3.38" shape="653.74,197.51 653.59,197.54 652.74,197.26 652.46,196.41 652.74,194.99"/>
    </edge>
    <edge id=":18_8" function="internal">
        <lane id=":18_8_0" index="0" disallow="pedestrian" speed="11.13" length="11.37" shape="639.60,195.20 643.43,195.05 646.53,194.58 648.87,193.81 650.48,192.73"/>
        <lane id=":18_8_1" index="1" disallow="pedestrian" speed="12.25" length="13.87" shape="639.60,198.40 644.07,198.19 647.75,197.55 650.64,196.48 652.74,194.99"/>
    </edge>
    <edge id=":18_10" function="internal">
        <lane id=":18_10_0" index="0" disallow="pedestrian" speed="9.26" length="19.35" shape="639.60,198.40 644.85,199.15 648.60,201.40 650.85,205.15 651.60,210.40"/>
    </edge>
    <edge id=":18_11" function="internal">
        <lane id=":18_11_0" index="0" disallow="pedestrian" speed="3.65" length="2.34" shape="639.60,198.40 640.80,199.20 641.20,200.00"/>
    </edge>
    <edge id=":18_15" function="internal">
        <lane id=":18_15_0" index="0" disallow="pedestrian" speed="3.65" length="2.34" shape="641.20,200.00 640.80,200.80 639.60,201.60"/>
    </edge>
    <edge id=":19_0" function="internal">
        <lane id=":19_0_0" index="0" disallow="pedestrian" speed="3.65" length="4.67" shape="49.28,1.43 48.57,0.18 48.57,-0.72 49.28,-1.25 50.72,-1.43"/>
    </edge>
    <edge id=":2_0" function="internal">
        <lane id=":2_0_0" index="0" disallow="pedestrian" speed="10.66" length="7.43" shape="256.36,1099.12 255.37,1100.74 254.92,1101.98 254.80,1103.32 254.80,1105.24"/>
        <lane id=":2_0_1" index="1" disallow="pedestrian" speed="12.07" length="7.43" shape="253.69,1097.34 252.41,1099.44 251.80,1101.04 251.61,1102.76 251.60,1105.24"/>
    </edge>
    <edge id=":2_2" function="internal">
        <lane id=":2_2_0" index="0" disallow="pedestrian" speed="3.65" length="4.67" shape="253.69,1097.34 252.36,1097.90 251.47,1097.79 251.03,1097.01 251.03,1095.57"/>
    </edge>
    <edge id=":2_3" function="internal">
        <lane id=":2_3_0" index="0" disallow="pedestrian" speed="6.45" length="4.87" shape="243.87,1095.20 245.49,1095.11 246.78,1094.85 247.74,1094.41 248.37,1093.79"/>
        <lane id=":2_3_1" index="1" disallow="pedestrian" speed="8.09" length="8.00" shape="243.87,1098.40 246.30,1098.22 248.30,1097.69 249.88,1096.81 251.03,1095.57"/>
    </edge>
    <edge id=":2_5" function="internal">
        <lane id=":2_5_0" index="0" speed="7.33" length="11.76" shape="243.87,1098.40 247.25,1098.83 249.67,1100.11 251.12,1102.25 251.60,1105.24"/>
    </edge>
    <edge id=":20_0" function="internal">
        <lane id=":20_0_0" index="0" disallow="pedestrian" speed="3.65" length="4.67" shape="848.87,-1.13 850.28,-1.41 851.13,-1.13 851.41,-0.28 851.13,1.13"/>
    </edge>
    <edge id=":21_0" function="internal">