
    <routes xmlns:xsi="http://www.w3.org/2001/XMLSchema-instance" xsi:noNamespaceSchemaLocation="http://sumo.dlr.de/xsd/routes_file.xsd">
        <vType id="normal_car" vClass="passenger" maxSpeed="40" speedFactor="0.9" speedDev="0.2" sigma="0.5" color="white" guiShape="passenger" />
        <vType id="sporty_car" vClass="passenger" maxSpeed="60" speedFactor="1.3" speedDev="0.1" sigma="0.1" color="red" guiShape="passenger/sedan" />
        <vType id="trailer" vClass="trailer" maxSpeed="30" speedFactor="1" speedDev="0.05" color="gray" guiShape="truck/trailer" />
        <vType id="coach" vClass="coach" maxSpeed="30" speedFactor="1" speedDev="0.05" color="green" guiShape="bus/coach" />
        <vehicle id="1" depart="1.00" type="sporty_car">
        <route edges="e48 e44 e39 e34 e9" />
    </vehicle>
    <vehicle id="2" depart="2.00" type="normal_car">
        <route edges="e1 e7 e13 e18 e21 e22 e24" />
    </vehicle>
    <vehicle id="3" depart="3.00" type="sporty_car">
        <route edges="e1 e7 e13 e18 e21 e22 e24" />
    </vehicle>
    <vehicle id="4" depart="4.00" type="sporty_car">
        <route edges="e48 e44 e39 e36 e14" />
    </vehicle>
    <vehicle id="5" depart="5.00" type="normal_car">
        <route edges="e20 e24" />
    </vehicle>
    <vehicle id="6" depart="6.00" type="normal_car">
        <route edges="e1 e7 e13 e18 e21 e22 e24" />
    </vehicle>
    <vehicle id="7" depart="7.00" type="normal_car">
        <route edges="e1 e7 e13 e18 e21 e22 e24" />
    </vehicle>
    <vehicle id="8" depart="8.00" type="normal_car">
        <route edges="e1 e30 e5 e8 e9" />
    </vehicle>
    <vehicle id="9" depart="9.00" type="normal_car">
        <route edges="e1 e7 e13 e18 e21 e22 e24" />
    </vehicle>
    <vehicle id="10" depart="10.00" type="normal_car">
        <route edges="e1 e7 e13 e18 e21 e22 e24" />
    </vehicle>
    <vehicle id="12" depart="12.00" type="normal_car">
        <route edges="e1 e7 e13 e18 e21 e22 e24" />
    </vehicle>
    <vehicle id="13" depart="13.00" type="normal_car">
        <route edges="e1 e30 e5 e8 e9" />
    </vehicle>
    <vehicle id="14" depart="14.00" type="normal_car">
        <route edges="e1 e30 e5 e8 e9" />
    </vehicle>
    <vehicle id="15" depart="15.00" type="sporty_car">
        <route edges="e4 e5 e8 e10 e15 e20 e24" />
    </vehicle>
    <vehicle id="16" depart="16.00" type="sporty_car">
        <route edges="e48 e44 e39 e34 e9" />
    </vehicle>
    <vehicle id="17" depart="17.00" type="normal_car">
        <route edges="e6 e7 e13 e16 e17" />
    </vehicle>
    <vehicle id="20" depart="20.00" type="normal_car">
        <route edges="e48 e44 e39 e34 e9" />
    </vehicle>
    <vehicle id="22" depart="22.00" type="normal_car">
        <route edges="e4 e5 e8 e9" />
    </vehicle>
    <vehicle id="23" depart="23.00" type="normal_car">
        <route edges="e4 e5 e8 e10 e15 e20 e24" />
    </vehicle>
    <vehicle id="24" depart="24.00" type="normal_car">
        <route edges="e48 e44 e39 e36 e14" />
    </vehicle>
    <vehicle id="25" depart="25.00" type="normal_car">
        <route edges="e48 e44 e39 e34 e9" />
    </vehicle>
    <vehicle id="27" depart="27.00" type="sporty_car">
        <route edges="e48 e44 e39 e34 e9" />
    </vehicle>
    <vehicle id="30" depart="30.00" type="normal_car">
        <route edges="e1 e7 e13 e18 e23" />
    </vehicle>
    <vehicle id="31" depart="31.00" type="normal_car">
        <route edges="e1 e7 e13 e18 e21 e22 e24" />
    </vehicle>
    <vehicle id="34" depart="34.00" type="normal_car">
        <route edges="e48 e44 e39 e34 e9" />
    </vehicle>
    <vehicle id="37" depart="37.00" type="normal_car">
        <route edges="e4 e5 e8 e9" />
    </vehicle>
    <vehicle id="38" depart="38.00" type="normal_car">
        <route edges="e4 e5 e8 e10 e15 e20 e24" />
    </vehicle>
    <vehicle id="39" depart="39.00" type="normal_car">
        <route edges="e48 e44 e39 e34 e9" />
    </vehicle>
    <vehicle id="44" depart="44.00" type="normal_car">
        <route edges="e1 e7 e13 e18 e21 e22 e24" />
    </vehicle>
    <vehicle id="45" depart="45.00" type="normal_car">
        <route edges="e4 e5 e8 e10 e15 e20 e24" />
    </vehicle>
    <vehicle id="46" depart="46.00" type="normal_car">
        <route edges="e1 e30 e5 e8 e9" />
    </vehicle>
    <vehicle id="48" depart="48.00" type="normal_car">
        <route edges="e4 e6 e7 e13 e16" />
    </vehicle>
    <vehicle id="49" depart="49.00" type="normal_car">
        <route edges="e1 e7 e11" />
    </vehicle>
    <vehicle id="50" depart="50.00" type="normal_car">
        <route edges="e1 e7 e13 e18 e23" />
    </vehicle>
    <vehicle id="51" depart="51.00" type="sporty_car">
        <route edges="e1 e30 e5 e8 e9" />
    </vehicle>
    <vehicle id="52" depart="52.00" type="normal_car">
        <route edges="e48 e44 e39 e34 e9" />
    </vehicle>
    <vehicle id="53" depart="53.00" type="normal_car">
        <route edges="e1 e7 e13 e18 e23" />
    </vehicle>
    <vehicle id="55" depart="55.00" type="normal_car">
        <route edges="e4 e5 e8 e9" />
    </vehicle>
    <vehicle id="56" depart="56.00" type="sporty_car">
        <route edges="e4 e5 e8 e9" />
    </vehicle>
    <vehicle id="57" depart="57.00" type="normal_car">
        <route edges="e4 e5 e8 e10 e15 e20 e24" />
    </vehicle>
    <vehicle id="58" depart="58.00" type="normal_car">
        <route edges="e4 e5 e8 e10 e15 e20 e24" />
    </vehicle>
    <vehicle id="59" depart="59.00" type="normal_car">
        <route edges="e1 e30 e5 e8 e9" />
    </vehicle>
    <vehicle id="60" depart="60.00" type="normal_car">
        <route edges="e4 e5 e8 e9" />
    </vehicle>
    <vehicle id="61" depart="61.00" type="normal_car">
        <route edges="e48 e44 e39 e34 e9" />
    </vehicle>
    <vehicle id="62" depart="62.00" type="normal_car">
        <route edges="e4 e5 e8 e10 e15 e20 e24" />
    </vehicle>
    <vehicle id="63" depart="63.00" type="normal_car">
        <route edges="e1 e7 e13 e18 e23" />
    </vehicle>
    <vehicle id="64" depart="64.00" type="sporty_car">
        <route edges="e1 e30 e5 e8 e9" />
    </vehicle>
    <vehicle id="65" depart="65.00" type="normal_car">
        <route edges="e48 e44 e39 e34 e9" />
    </vehicle>
    <vehicle id="66" depart="66.00" type="normal_car">
        <route edges="e48 e44 e39 e34 e9" />
    </vehicle>
    <vehicle id="68" depart="68.00" type="normal_car">
        <route edges="e16" />
    </vehicle>
    <vehicle id="69" depart="69.00" type="normal_car">
        <route edges="e1 e30 e5 e8 e9" />
    </vehicle>
    <vehicle id="70" depart="70.00" type="normal_car">
        <route edges="e4 e5 e8 e10 e15 e20 e24" />
    </vehicle>
    <vehicle id="71" depart="71.00" type="sporty_car">
        <route edges="e4 e5 e8 e10 e15 e20 e24" />
    </vehicle>
    <vehicle id="72" depart="72.00" type="sporty_car">
        <route edges="e4 e5 e8 e9" />
    </vehicle>
    <vehicle id="73" depart="73.00" type="sporty_car">
        <route edges="e48 e44 e39 e34 e9" />
    </vehicle>
    <vehicle id="75" depart="75.00" type="normal_car">
        <route edges="e4 e5 e8 e10 e15 e20 e24" />
    </vehicle>
    <vehicle id="76" depart="76.00" type="normal_car">
        <route edges="e4 e5 e8 e9" />
    </vehicle>
    <vehicle id="77" depart="77.00" type="sporty_car">
        <route edges="e4 e5 e8 e10 e15 e20 e24" />
    </vehicle>
    <vehicle id="78" depart="78.00" type="normal_car">
        <route edges="e1 e7 e13 e18 e23" />
    </vehicle>
    <vehicle id="80" depart="80.00" type="normal_car">
        <route edges="e4 e5 e8 e9" />
    </vehicle>
    <vehicle id="81" depart="81.00" type="normal_car">
        <route edges="e1 e7 e13 e18 e21 e22 e24" />
    </vehicle>
    <vehicle id="82" depart="82.00" type="normal_car">
        <route edges="e1 e7 e13 e18 e23" />
    </vehicle>
    <vehicle id="83" depart="83.00" type="sporty_car">
        <route edges="e4 e5 e8 e10 e15 e20 e24" />
    </vehicle>
    <vehicle id="84" depart="84.00" type="normal_car">
        <route edges="e1 e7 e13 e18 e23" />
    </vehicle>
    <vehicle id="87" depart="87.00" type="normal_car">
        <route edges="e12 e15 e41 e40 e37 e11 e14" />
    </vehicle>
    <vehicle id="88" depart="88.00" type="normal_car">
        <route edges="e4 e5 e8 e10 e15 e20 e24" />
    </vehicle>
    <vehicle id="89" depart="89.00" type="normal_car">
        <route edges="e4 e5 e8 e9" />
    </vehicle>
    <vehicle id="90" depart="90.00" type="normal_car">
        <route edges="e1 e7 e13 e18 e23" />
    </vehicle>
    <vehicle id="93" depart="93.00" type="normal_car">
        <route edges="e48 e44 e39 e34 e9" />
    </vehicle>
    <vehicle id="94" depart="94.00" type="normal_car">
        <route edges="e19 e22 e44 e41 e40 e18 e21" />
    </vehicle>
    <vehicle id="100" depart="100.00" type="normal_car">
        <route edges="e1 e7 e13 e18 e21 e22 e24" />
    </vehicle>
    <vehicle id="101" depart="101.00" type="normal_car">
        <route edges="e1 e30 e5 e8 e9" />
    </vehicle>
    <vehicle id="104" depart="104.00" type="normal_car">
        <route edges="e3 e8 e10 e15 e41 e19 e22" />
    </vehicle>
    <vehicle id="105" depart="105.00" type="normal_car">
        <route edges="e1 e30 e5 e8 e9" />
    </vehicle>
    <vehicle id="106" depart="106.00" type="normal_car">
        <route edges="e1 e7" />
    </vehicle>
    <vehicle id="107" depart="107.00" type="normal_car">
        <route edges="e48 e44 e39 e36 e14" />
    </vehicle>
    <vehicle id="109" depart="109.00" type="coach">
        <route edges="e4 e5 e8 e10 e15 e20 e24" />
    </vehicle>
    <vehicle id="110" depart="110.00" type="sporty_car">
        <route edges="e48 e44 e39 e34 e9" />
    </vehicle>
    <vehicle id="111" depart="111.00" type="normal_car">
        <route edges="e1 e30 e5 e8 e9" />
    </vehicle>
    <vehicle id="112" depart="112.00" type="normal_car">
        <route edges="e4 e5 e8 e9" />
    </vehicle>
    <vehicle id="113" depart="113.00" type="normal_car">
        <route edges="e1 e7 e13 e18 e23" />
    </vehicle>
    <vehicle id="114" depart="114.00" type="normal_car">
        <route edges="e1 e7 e13 e18 e21 e22 e24" />
    </vehicle>
    <vehicle id="115" depart="115.00" type="normal_car">
        <route edges="e48 e44 e39 e34 e9" />
    </vehicle>
    <vehicle id="117" depart="117.00" type="normal_car">
        <route edges="e1 e7 e13 e18 e23" />
    </vehicle>
    <vehicle id="118" depart="118.00" type="normal_car">
        <route edges="e1 e7 e13 e18 e23" />
    </vehicle>
    <vehicle id="119" depart="119.00" type="normal_car">
        <route edges="e1 e7 e13 e18 e21 e22 e24" />
    </vehicle>
    <vehicle id="120" depart="120.00" type="normal_car">
        <route edges="e4 e5 e8 e10 e15 e20 e24" />
    </vehicle>
    <vehicle id="121" depart="121.00" type="normal_car">
        <route edges="e1 e30 e5 e8 e9" />
    </vehicle>
    <vehicle id="123" depart="123.00" type="normal_car">
        <route edges="e21 e43 e40 e37 e11" />
    </vehicle>
    <vehicle id="128" depart="128.00" type="normal_car">
        <route edges="e1 e30 e5 e8 e9" />
    </vehicle>
    <vehicle id="129" depart="129.00" type="normal_car">
        <route edges="e1 e30 e5 e8 e9" />
    </vehicle>
    <vehicle id="130" depart="130.00" type="normal_car">
        <route edges="e48 e44 e39 e36 e14" />
    </vehicle>
    <vehicle id="132" depart="132.00" type="normal_car">
        <route edges="e48 e44 e39 e34 e9" />
    </vehicle>
    <vehicle id="133" depart="133.00" type="normal_car">
        <route edges="e48 e44 e39 e36 e14" />
    </vehicle>
    <vehicle id="134" depart="134.00" type="normal_car">
        <route edges="e1 e7 e13 e18 e23" />
    </vehicle>
    <vehicle id="136" depart="136.00" type="normal_car">
        <route edges="e48 e44 e39 e36 e14" />
    </vehicle>
    <vehicle id="138" depart="138.00" type="normal_car">
        <route edges="e13 e16 e38 e12 e15" />
    </vehicle>
    <vehicle id="139" depart="139.00" type="normal_car">
        <route edges="e14 e40 e37 e11" />
    </vehicle>
    <vehicle id="141" depart="141.00" type="normal_car">
        <route edges="e4 e5 e8 e10 e15 e20 e24" />
    </vehicle>
    <vehicle id="143" depart="143.00" type="normal_car">
        <route edges="e1 e7 e13 e18 e21 e22 e24" />
    </vehicle>
    <vehicle id="144" depart="144.00" type="sporty_car">
        <route edges="e1 e7 e13 e18 e21 e22 e24" />
    </vehicle>
    <vehicle id="145" depart="145.00" type="normal_car">
        <route edges="e48 e44 e39 e34 e9" />
    </vehicle>
    <vehicle id="146" depart="146.00" type="coach">
        <route edges="e4 e5 e8 e10 e15 e20 e24" />
    </vehicle>
    <vehicle id="147" depart="147.00" type="normal_car">
        <route edges="e4 e5 e8 e10 e15 e20 e24" />
    </vehicle>
    <vehicle id="148" depart="148.00" type="normal_car">
        <route edges="e18 e21 e22 e44 e39 e36 e14" />
    </vehicle>
    <vehicle id="149" depart="149.00" type="normal_car">
        <route edges="e4 e5 e8 e10 e15 e20 e24" />
    </vehicle>
    <vehicle id="150" depart="150.00" type="normal_car">
        <route edges="e48 e44 e39 e34 e9" />
    </vehicle>
    <vehicle id="151" depart="151.00" type="normal_car">
        <route edges="e4 e5 e8 e10 e15 e20 e24" />
    </vehicle>
    <vehicle id="156" depart="156.00" type="normal_car">
        <route edges="e1 e30 e5 e8 e9" />
    </vehicle>
    <vehicle id="157" depart="157.00" type="normal_car">
        <route edges="e4 e5 e8 e10 e15 e20 e24" />
    </vehicle>
    <vehicle id="160" depart="160.00" type="normal_car">
        <route edges="e48 e44 e39 e36 e14" />
    </vehicle>
    <vehicle id="163" depart="163.00" type="normal_car">
        <route edges="e1 e7 e13 e18 e21 e22 e24" />
    </vehicle>
    <vehicle id="167" depart="167.00" type="normal_car">
        <route edges="e1 e7 e13 e18 e21 e22 e24" />
    </vehicle>
    <vehicle id="168" depart="168.00" type="normal_car">
        <route edges="e1 e30 e5 e8 e9" />
    </vehicle>
    <vehicle id="169" depart="169.00" type="sporty_car">
        <route edges="e1 e7 e13 e18 e23" />
    </vehicle>
    <vehicle id="172" depart="172.00" type="normal_car">
        <route edges="e4 e5 e8 e9" />
    </vehicle>
    <vehicle id="174" depart="174.00" type="normal_car">
        <route edges="e1 e7 e13 e18 e23" />
    </vehicle>
    <vehicle id="175" depart="175.00" type="normal_car">
        <route edges="e48 e44 e39 e34 e9" />
    </vehicle>
    <vehicle id="177" depart="177.00" type="normal_car">
        <route edges="e1 e7 e13 e18 e23" />
    </vehicle>
    <vehicle id="178" depart="178.00" type="normal_car">
        <route edges="e4 e5 e8 e10 e15 e20 e24" />
    </vehicle>
    <vehicle id="179" depart="179.00" type="normal_car">
        <route edges="e4 e5 e8 e10 e15 e20 e24" />
    </vehicle>
    <vehicle id="180" depart="180.00" type="normal_car">
        <route edges="e1 e30 e5 e8 e9" />
    </vehicle>
    <vehicle id="181" depart="181.00" type="normal_car">
        <route edges="e3 e29 e6" />
    </vehicle>
    <vehicle id="182" depart="182.00" type="normal_car">
        <route edges="e4 e5 e8 e9" />
    </vehicle>
    <vehicle id="183" depart="183.00" type="normal_car">
        <route edges="e1 e30 e5 e8 e9" />
    </vehicle>
    <vehicle id="184" depart="184.00" type="sporty_car">
        <route edges="e48 e44 e39 e36 e14" />
    </vehicle>
    <vehicle id="185" depart="185.00" type="normal_car">
        <route edges="e1 e7 e13 e18 e21 e22 e24" />
    </vehicle>
    <vehicle id="186" depart="186.00" type="normal_car">
        <route edges="e48 e44 e39 e34 e9" />
    </vehicle>
    <vehicle id="187" depart="187.00" type="sporty_car">
        <route edges="e48 e44 e39 e34 e9" />
    </vehicle>
    <vehicle id="189" depart="189.00" type="normal_car">
        <route edges="e4 e5 e8 e10 e15 e20 e24" />
    </vehicle>
    <vehicle id="190" depart="190.00" type="normal_car">
        <route edges="e4 e5 e8 e9" />
    </vehicle>
    <vehicle id="191" depart="191.00" type="normal_car">
        <route edges="e1 e7 e13 e18 e23" />
    </vehicle>
    <vehicle id="198" depart="198.00" type="sporty_car">
        <route edges="e1 e7 e13 e18 e23" />
    </vehicle>
    <vehicle id="199" depart="199.00" type="normal_car">
        <route edges="e48 e44 e39 e34 e9" />
    </vehicle>
    <vehicle id="204" depart="204.00" type="normal_car">
        <route edges="e4 e5 e8 e10 e15 e20 e24" />
    </vehicle>
    <vehicle id="205" depart="205.00" type="normal_car">
        <route edges="e4 e5 e8 e10 e15 e20 e24" />
    </vehicle>
    <vehicle id="206" depart="206.00" type="sporty_car">
        <route edges="e22 e44 e39 e36 e14" />
    </vehicle>
    <vehicle id="207" depart="207.00" type="normal_car">
        <route edges="e1 e30 e5 e8 e9" />
    </vehicle>
    <vehicle id="208" depart="208.00" type="normal_car">
        <route edges="e48 e44 e39 e34 e9" />
    </vehicle>
    <vehicle id="209" depart="209.00" type="normal_car">
        <route edges="e5 e8 e10 e15 e41 e38 e12 e34 e32 e29 e6" />
    </vehicle>
    <vehicle id="211" depart="211.00" type="normal_car">
        <route edges="e48 e44 e39 e34 e9" />
    </vehicle>
    <vehicle id="212" depart="212.00" type="normal_car">
        <route edges="e4 e5 e8 e9" />
    </vehicle>
    <vehicle id="213" depart="213.00" type="normal_car">
        <route edges="e4 e5 e8 e9" />
    </vehicle>
    <vehicle id="216" depart="216.00" type="normal_car">
        <route edges="e16" />
    </vehicle>
    <vehicle id="217" depart="217.00" type="normal_car">
        <route edges="e1 e7 e13 e18 e23" />
    </vehicle>
    <vehicle id="218" depart="218.00" type="normal_car">
        <route edges="e4 e5 e8 e10 e15 e20 e24" />
    </vehicle>
    <vehicle id="219" depart="219.00" type="normal_car">
        <route edges="e1 e7 e13 e18 e23" />
    </vehicle>
    <vehicle id="220" depart="220.00" type="normal_car">
        <route edges="e48 e44 e39 e36 e14" />
    </vehicle>
    <vehicle id="222" depart="222.00" type="normal_car">
        <route edges="e4 e5 e8 e9" />
    </vehicle>
    <vehicle id="223" depart="223.00" type="normal_car">
        <route edges="e48 e44 e39 e34 e9" />
    </vehicle>
    <vehicle id="224" depart="224.00" type="normal_car">
        <route edges="e1 e7 e13 e18 e21 e22 e24" />
    </vehicle>
    <vehicle id="225" depart="225.00" type="normal_car">
        <route edges="e1 e7 e13 e18 e23" />
    </vehicle>
    <vehicle id="226" depart="226.00" type="normal_car">
        <route edges="e4 e5 e8 e10 e15 e20 e24" />
    </vehicle>
    <vehicle id="227" depart="227.00" type="normal_car">
        <route edges="e1 e7 e13 e18 e21 e22 e24" />
    </vehicle>
    <vehicle id="228" depart="228.00" type="normal_car">
        <route edges="e2 e5" />
    </vehicle>
    <vehicle id="229" depart="229.00" type="normal_car">
        <route edges="e1 e7 e13 e18 e21 e22 e24" />
    </vehicle>
    <vehicle id="232" depart="232.00" type="normal_car">
        <route edges="e1 e7 e13 e18 e21 e22 e24" />
    </vehicle>
    <vehicle id="233" depart="233.00" type="normal_car">
        <route edges="e1 e7 e13 e18 e21 e22 e24" />
    </vehicle>
    <vehicle id="235" depart="235.00" type="normal_car">
        <route edges="e1 e7 e13 e18 e21 e22 e24" />
    </vehicle>
    <vehicle id="236" depart="236.00" type="normal_car">
        <route edges="e48 e44 e39 e34 e9" />
    </vehicle>
    <vehicle id="237" depart="237.00" type="normal_car">
        <route edges="e1 e7 e13 e18 e21 e22 e24" />
    </vehicle>
    <vehicle id="239" depart="239.00" type="normal_car">
        <route edges="e4 e5 e8 e10 e15 e20 e24" />
    </vehicle>
    <vehicle id="240" depart="240.00" type="normal_car">
        <route edges="e48 e44 e39 e34 e9" />
    </vehicle>
    <vehicle id="241" depart="241.00" type="normal_car">
        <route edges="e4 e5 e8 e9" />
    </vehicle>
    <vehicle id="242" depart="242.00" type="normal_car">
        <route edges="e4 e5 e8 e10 e15 e20 e24" />
    </vehicle>
    <vehicle id="243" depart="243.00" type="normal_car">
        <route edges="e1 e7 e13 e18 e23" />
    </vehicle>
    <vehicle id="244" depart="244.00" type="trailer">
        <route edges="e14 e17 e39 e34 e32 e29 e6" />
    </vehicle>
    <vehicle id="245" depart="245.00" type="normal_car">
        <route edges="e1 e7 e13 e18 e23" />
    </vehicle>
    <vehicle id="246" depart="246.00" type="normal_car">
        <route edges="e1 e30 e5 e8 e9" />
    </vehicle>
    <vehicle id="248" depart="248.00" type="sporty_car">
        <route edges="e48 e44 e39 e34 e9" />
    </vehicle>
    <vehicle id="249" depart="249.00" type="normal_car">
        <route edges="e48 e44 e39 e34 e9" />
    </vehicle>
    <vehicle id="250" depart="250.00" type="normal_car">
        <route edges="e1 e30 e5 e8 e9" />
    </vehicle>
    <vehicle id="252" depart="252.00" type="normal_car">
        <route edges="e48 e44 e39 e34 e9" />
    </vehicle>
    <vehicle id="253" depart="253.00" type="normal_car">
        <route edges="e1 e30 e5 e8 e9" />
    </vehicle>
    <vehicle id="254" depart="254.00" type="normal_car">
        <route edges="e48 e44 e39 e34 e9" />
    </vehicle>
    <vehicle id="255" depart="255.00" type="normal_car">
        <route edges="e4 e5 e8 e10 e15 e20 e24" />
    </vehicle>
    <vehicle id="258" depart="258.00" type="normal_car">
        <route edges="e4 e5 e8 e9" />
    </vehicle>
    <vehicle id="259" depart="259.00" type="normal_car">
        <route edges="e1 e7 e13 e18 e23" />
    </vehicle>
    <vehicle id="261" depart="261.00" type="normal_car">
        <route edges="e1 e7 e13 e18 e23" />
    </vehicle>
    <vehicle id="262" depart="262.00" type="normal_car">
        <route edges="e4 e5 e8 e9" />
    </vehicle>
    <vehicle id="263" depart="263.00" type="normal_car">
        <route edges="e1 e7 e13 e18 e23" />
    </vehicle>
    <vehicle id="264" depart="264.00" type="normal_car">
        <route edges="e4 e5 e8 e10 e15 e20 e24" />
    </vehicle>
    <vehicle id="265" depart="265.00" type="normal_car">
        <route edges="e1 e7 e13 e18 e23" />
    </vehicle>
    <vehicle id="266" depart="266.00" type="normal_car">
        <route edges="e48 e44 e39 e36 e14" />
    </vehicle>
    <vehicle id="267" depart="267.00" type="sporty_car">
        <route edges="e4 e5 e8 e10 e15 e20 e24" />
    </vehicle>
    <vehicle id="268" depart="268.00" type="normal_car">
        <route edges="e48 e44 e39 e34 e9" />
    </vehicle>
    <vehicle id="269" depart="269.00" type="normal_car">
        <route edges="e48 e44 e39 e34 e9" />
    </vehicle>
    <vehicle id="270" depart="270.00" type="normal_car">
        <route edges="e4 e5 e8 e9" />
    </vehicle>
    <vehicle id="271" depart="271.00" type="normal_car">
        <route edges="e48 e44 e39 e34 e9" />
    </vehicle>
    <vehicle id="274" depart="274.00" type="normal_car">
        <route edges="e1 e30 e5 e8 e9" />
    </vehicle>
    <vehicle id="275" depart="275.00" type="normal_car">
        <route edges="e4 e5 e8 e10 e15 e20 e24" />
    </vehicle>
    <vehicle id="277" depart="277.00" type="normal_car">
        <route edges="e4 e5 e8 e9" />
    </vehicle>
    <vehicle id="278" depart="278.00" type="normal_car">
        <route edges="e48 e44 e39 e36 e14" />
    </vehicle>
    <vehicle id="279" depart="279.00" type="normal_car">
        <route edges="e1 e30 e5 e8 e9" />
    </vehicle>
    <vehicle id="281" depart="281.00" type="normal_car">
        <route edges="e1 e7 e13 e18 e23" />
    </vehicle>
    <vehicle id="282" depart="282.00" type="normal_car">
        <route edges="e4 e5 e8 e10 e15 e20 e24" />
    </vehicle>
    <vehicle id="284" depart="284.00" type="normal_car">
        <route edges="e4 e5 e8 e10 e15 e20 e24" />
    </vehicle>
    <vehicle id="286" depart="286.00" type="normal_car">
        <route edges="e4 e5 e8 e10 e15 e20 e24" />
    </vehicle>
    <vehicle id="287" depart="287.00" type="normal_car">
        <route edges="e4 e5 e8 e9" />
    </vehicle>
    <vehicle id="289" depart="289.00" type="normal_car">
        <route edges="e48 e44 e39 e34 e9" />
    </vehicle>
    <vehicle id="290" depart="290.00" type="normal_car">
        <route edges="e48 e44 e39 e34 e9" />
    </vehicle>
    <vehicle id="291" depart="291.00" type="normal_car">
        <route edges="e1 e7 e13 e18 e23" />
    </vehicle>
    <vehicle id="293" depart="293.00" type="normal_car">
        <route edges="e48 e44 e39 e34 e9" />
    </vehicle>
    <vehicle id="294" depart="294.00" type="sporty_car">
        <route edges="e48 e44 e39 e34 e9" />
    </vehicle>
    <vehicle id="295" depart="295.00" type="normal_car">
        <route edges="e48 e44 e39 e34 e9" />
    </vehicle>
    <vehicle id="296" depart="296.00" type="normal_car">
        <route edges="e8 e10 e15 e20" />
    </vehicle>
    <vehicle id="297" depart="297.00" type="normal_car">
        <route edges="e1 e30 e5 e8 e9" />
    </vehicle>
    <vehicle id="298" depart="298.00" type="normal_car">
        <route edges="e4 e5 e8 e9" />
    </vehicle>
    <vehicle id="300" depart="300.00" type="sporty_car">
        <route edges="e1 e7 e13 e18 e21 e22 e24" />
    </vehicle>
    <vehicle id="301" depart="301.00" type="normal_car">
        <route edges="e4 e5 e8 e9" />
    </vehicle>
    <vehicle id="304" depart="304.00" type="normal_car">
        <route edges="e4 e5 e8 e9" />
    </vehicle>
    <vehicle id="305" depart="305.00" type="normal_car">
        <route edges="e1 e7 e13 e18 e21 e22 e24" />
    </vehicle>
    <vehicle id="306" depart="306.00" type="normal_car">
        <route edges="e4 e5 e8 e10 e15 e20 e24" />
    </vehicle>
    <vehicle id="308" depart="308.00" type="normal_car">
        <route edges="e48 e44 e39 e34 e9" />
    </vehicle>
    <vehicle id="310" depart="310.00" type="normal_car">
        <route edges="e4 e5 e8 e9" />
    </vehicle>
    <vehicle id="314" depart="314.00" type="normal_car">
        <route edges="e1 e30 e5 e8 e9" />
    </vehicle>
    <vehicle id="316" depart="316.00" type="normal_car">
        <route edges="e5 e8 e10 e15 e20 e46 e45 e23" />
    </vehicle>
    <vehicle id="318" depart="318.00" type="normal_car">
        <route edges="e1 e7 e13 e18 e23" />
    </vehicle>
    <vehicle id="320" depart="320.00" type="sporty_car">
        <route edges="e4 e5 e8 e9" />
    </vehicle>
    <vehicle id="321" depart="321.00" type="normal_car">
        <route edges="e1 e7 e13 e18 e23" />
    </vehicle>
    <vehicle id="325" depart="325.00" type="normal_car">
        <route edges="e1 e30 e5 e8 e9" />
    </vehicle>
    <vehicle id="326" depart="326.00" type="normal_car">
        <route edges="e4 e5 e8 e9" />
    </vehicle>
    <vehicle id="328" depart="328.00" type="normal_car">
        <route edges="e1 e30 e5 e8 e9" />
    </vehicle>
    <vehicle id="332" depart="332.00" type="coach">
        <route edges="e1 e30 e5 e8 e9" />
    </vehicle>
    <vehicle id="335" depart="335.00" type="normal_car">
        <route edges="e4 e5 e8 e9" />
    </vehicle>
    <vehicle id="336" depart="336.00" type="normal_car">
        <route edges="e22" />
    </vehicle>
    <vehicle id="338" depart="338.00" type="normal_car">
        <route edges="e4 e5 e8 e10 e15 e20 e24" />
    </vehicle>
    <vehicle id="341" depart="341.00" type="normal_car">
        <route edges="e1 e30 e5 e8 e9" />
    </vehicle>
    <vehicle id="343" depart="343.00" type="normal_car">
        <route edges="e4 e5 e8 e9" />
    </vehicle>
    <vehicle id="344" depart="344.00" type="normal_car">
        <route edges="e4 e5 e8 e10 e15 e20 e24" />
    </vehicle>
    <vehicle id="345" depart="345.00" type="normal_car">
        <route edges="e1 e7 e13 e18 e23" />
    </vehicle>
    <vehicle id="348" depart="348.00" type="normal_car">
        <route edges="e4 e5 e8 e9" />
    </vehicle>
    <vehicle id="352" depart="352.00" type="normal_car">
        <route edges="e1 e30 e5 e8 e9" />
    </vehicle>
    <vehicle id="353" depart="353.00" type="sporty_car">
        <route edges="e1 e7 e13 e18 e23" />
    </vehicle>
    <vehicle id="354" depart="354.00" type="normal_car">
        <route edges="e48 e44 e39 e34 e9" />
    </vehicle>
    <vehicle id="355" depart="355.00" type="normal_car">
        <route edges="e4 e5 e8 e10 e15 e20 e24" />
    </vehicle>
    <vehicle id="356" depart="356.00" type="sporty_car">
        <route edges="e4 e5 e8 e9" />
    </vehicle>
    <vehicle id="357" depart="357.00" type="normal_car">
        <route edges="e4 e5 e8 e9" />
    </vehicle>
    <vehicle id="358" depart="358.00" type="normal_car">
        <route edges="e1 e30 e5 e8 e9" />
    </vehicle>
    <vehicle id="359" depart="359.00" type="normal_car">
        <route edges="e1 e30 e5 e8 e9" />
    </vehicle>
    <vehicle id="360" depart="360.00" type="normal_car">
        <route edges="e6 e7 e11" />
    </vehicle>
    <vehicle id="362" depart="362.00" type="normal_car">
        <route edges="e1 e7 e13 e18 e21 e22 e24" />
    </vehicle>
    <vehicle id="363" depart="363.00" type="normal_car">
        <route edges="e1 e7 e13 e18 e21 e22 e24" />
    </vehicle>
    <vehicle id="366" depart="366.00" type="normal_car">
        <route edges="e1 e7 e13 e18 e23" />
    </vehicle>
    <vehicle id="367" depart="367.00" type="normal_car">
        <route edges="e4 e5 e8 e9" />
    </vehicle>
    <vehicle id="371" depart="371.00" type="sporty_car">
        <route edges="e1 e30 e5 e8 e9" />
    </vehicle>
    <vehicle id="372" depart="372.00" type="normal_car">
        <route edges="e4 e5 e8 e9" />
    </vehicle>
    <vehicle id="373" depart="373.00" type="normal_car">
        <route edges="e1 e7 e13 e18 e21 e22 e24" />
    </vehicle>
    <vehicle id="374" depart="374.00" type="normal_car">
        <route edges="e1 e7 e13 e18 e21 e22 e24" />
    </vehicle>
    <vehicle id="376" depart="376.00" type="normal_car">
        <route edges="e4 e5 e8 e10 e15 e20 e24" />
    </vehicle>
    <vehicle id="379" depart="379.00" type="normal_car">
        <route edges="e48 e44 e39 e36 e14" />
    </vehicle>