<?xml version="1.0" encoding="UTF-8"?>

<!-- generated on 2022-03-05 14:52:39 by Eclipse SUMO netconvert Version 1.12.0
<configuration xmlns:xsi="http://www.w3.org/2001/XMLSchema-instance" xsi:noNamespaceSchemaLocation="http://sumo.dlr.de/xsd/netconvertConfiguration.xsd">

    <input>
        <node-files value="nets/lucerne.nod.xml"/>
        <edge-files value="nets/lucerne.edg.xml"/>
    </input>

    <output>
        <output-file value="nets/lucerne.net.xml"/>
    </output>

    <junctions>
        <no-turnarounds value="true"/>
    </junctions>

    <report>
        <aggregate-warnings value="5"/>
    </report>

</configuration>
-->

<net version="1.9" junctionCornerDetail="5" limitTurnSpeed="5.50" xmlns:xsi="http://www.w3.org/2001/XMLSchema-instance" xsi:noNamespaceSchemaLocation="http://sumo.dlr.de/xsd/net_file.xsd">

    <location netOffset="100.00,1300.00" convBoundary="0.00,0.00,1350.00,1400.00" origBoundary="-100.00,-1300.00,1250.00,100.00" projParameter="!"/>

    <edge id=":1_0" function="internal">
        <lane id=":1_0_0" index="0" allow="bus" speed="7.32" length="7.56" shape="800.94,1291.15 802.07,1292.92 803.43,1294.19 805.02,1294.95 806.84,1295.20"/>
        <lane id=":1_0_1" index="1" allow="bus" speed="8.76" length="11.11" shape="798.08,1292.58 799.72,1295.13 801.72,1296.94 804.10,1298.04 806.84,1298.40"/>
    </edge>
    <edge id=":1_2" function="internal">
        <lane id=":1_2_0" index="0" allow="bus" speed="6.61" length="7.05" shape="791.31,1301.91 792.44,1300.43 792.99,1298.86 792.97,1297.20 792.35,1295.44"/>
        <lane id=":1_2_1" index="1" allow="bus" speed="7.48" length="9.26" shape="791.31,1301.91 793.51,1299.45 794.90,1297.31 795.47,1295.50 795.22,1294.01"/>
    </edge>
    <edge id=":1_4" function="internal">
        <lane id=":1_4_0" index="0" allow="bus" speed="12.78" length="9.55" shape="793.57,1304.17 796.78,1301.11 799.41,1299.37 801.31,1298.87"/>
    </edge>
    <edge id=":1_5" function="internal">
        <lane id=":1_5_0" index="0" allow="bus" speed="12.78" length="5.57" shape="801.31,1298.87 802.43,1298.58 806.84,1298.40"/>
    </edge>
    <edge id=":10_0" function="internal">
        <lane id=":10_0_0" index="0" disallow="pedestrian" speed="20.00" length="20.80" shape="495.20,510.40 495.20,489.60"/>
        <lane id=":10_0_1" index="1" disallow="pedestrian" speed="20.00" length="20.80" shape="498.40,510.40 498.40,489.60"/>
    </edge>
    <edge id=":10_2" function="internal">
        <lane id=":10_2_0" index="0" disallow="pedestrian" speed="9.26" length="5.01" shape="498.40,510.40 499.11,505.44"/>
    </edge>
    <edge id=":10_9" function="internal">
        <lane id=":10_9_0" index="0" disallow="pedestrian" speed="9.26" length="14.34" shape="499.11,505.44 499.15,505.15 501.40,501.40 505.15,499.15 510.40,498.40"/>
    </edge>
    <edge id=":10_3" function="internal">
        <lane id=":10_3_0" index="0" disallow="pedestrian" speed="6.51" length="9.03" shape="510.40,504.80 507.95,505.15 506.20,506.20 505.15,507.95 504.80,510.40"/>
        <lane id=":10_3_1" index="1" disallow="pedestrian" speed="8.00" length="14.19" shape="510.40,501.60 506.55,502.15 503.80,503.80 502.15,506.55 501.60,510.40"/>
    </edge>
    <edge id=":10_5" function="internal">
        <lane id=":10_5_0" index="0" disallow="pedestrian" speed="9.26" length="19.35" shape="510.40,501.60 505.15,500.85 501.40,498.60 499.15,494.85 498.40,489.60"/>
    </edge>
    <edge id=":10_6" function="internal">
        <lane id=":10_6_0" index="0" disallow="pedestrian" speed="6.51" length="9.03" shape="504.80,489.60 505.15,492.05 506.20,493.80 507.95,494.85 510.40,495.20"/>
    </edge>
    <edge id=":10_7" function="internal">
        <lane id=":10_7_0" index="0" disallow="pedestrian" speed="20.00" length="20.80" shape="504.80,489.60 504.80,510.40"/>
        <lane id=":10_7_1" index="1" disallow="pedestrian" speed="20.00" length="20.80" shape="501.60,489.60 501.60,510.40"/>
    </edge>
    <edge id=":11_0" function="internal">
        <lane id=":11_0_0" index="0" disallow="pedestrian" speed="20.00" length="12.40" shape="606.20,504.80 593.80,504.80"/>
        <lane id=":11_0_1" index="1" disallow="pedestrian" speed="20.00" length="12.40" shape="606.20,501.60 593.80,501.60"/>
    </edge>
    <edge id=":11_2" function="internal">
        <lane id=":11_2_0" index="0" disallow="pedestrian" speed="8.49" length="3.28" shape="606.20,501.60 602.99,500.89"/>
    </edge>
    <edge id=":11_8" function="internal">
        <lane id=":11_8_0" index="0" disallow="pedestrian" speed="8.49" length="12.82" shape="602.99,500.89 602.79,500.85 600.35,498.60 598.89,494.85 598.40,489.60"/>
    </edge>
    <edge id=":11_3" function="internal">
        <lane id=":11_3_0" index="0" disallow="pedestrian" speed="6.25" length="8.24" shape="601.60,489.60 601.89,492.05 602.75,493.80 604.19,494.85 606.20,495.20"/>
    </edge>
    <edge id=":11_4" function="internal">
        <lane id=":11_4_0" index="0" disallow="pedestrian" speed="8.49" length="16.11" shape="601.60,489.60 601.11,494.85 599.65,498.60 597.21,500.85 593.80,501.60"/>
    </edge>
    <edge id=":11_5" function="internal">
        <lane id=":11_5_0" index="0" disallow="pedestrian" speed="6.25" length="8.24" shape="593.80,495.20 595.81,494.85 597.25,493.80 598.11,492.05 598.40,489.60"/>
    </edge>
    <edge id=":11_6" function="internal">
        <lane id=":11_6_0" index="0" disallow="pedestrian" speed="20.00" length="12.40" shape="593.80,495.20 606.20,495.20"/>
        <lane id=":11_6_1" index="1" disallow="pedestrian" speed="20.00" length="12.40" shape="593.80,498.40 606.20,498.40"/>
    </edge>
    <edge id=":12_0" function="internal">
        <lane id=":12_0_0" index="0" disallow="pedestrian" speed="8.55" length="10.55" shape="698.92,508.58 697.63,506.93 695.65,505.74 692.97,505.04 689.60,504.80"/>
    </edge>
    <edge id=":12_1" function="internal">
        <lane id=":12_1_0" index="0" disallow="pedestrian" speed="20.00" length="18.91" shape="698.92,508.58 696.52,503.32 695.44,499.47 695.17,495.43 695.20,489.60"/>
        <lane id=":12_1_1" index="1" disallow="pedestrian" speed="20.00" length="18.91" shape="701.79,507.15 699.57,502.29 698.59,498.73 698.37,494.99 698.40,489.60"/>
    </edge>
    <edge id=":12_3" function="internal">
        <lane id=":12_3_0" index="0" disallow="pedestrian" speed="20.00" length="15.93" shape="704.80,489.60 704.75,494.11 704.90,497.24 705.68,500.22 707.51,504.29"/>
        <lane id=":12_3_1" index="1" disallow="pedestrian" speed="20.00" length="15.93" shape="701.60,489.60 701.56,494.55 701.75,497.98 702.62,501.26 704.65,505.72"/>
    </edge>
    <edge id=":12_5" function="internal">
        <lane id=":12_5_0" index="0" disallow="pedestrian" speed="9.26" length="5.15" shape="701.60,489.60 700.87,494.70"/>
    </edge>
    <edge id=":12_8" function="internal">
        <lane id=":12_8_0" index="0" disallow="pedestrian" speed="9.26" length="14.20" shape="700.87,494.70 700.85,494.85 698.60,498.60 694.85,500.85 689.60,501.60"/>
    </edge>
    <edge id=":12_6" function="internal">
        <lane id=":12_6_0" index="0" disallow="pedestrian" speed="6.51" length="9.03" shape="689.60,495.20 692.05,494.85 693.80,493.80 694.85,492.05 695.20,489.60"/>
    </edge>
    <edge id=":12_7" function="internal">
        <lane id=":12_7_0" index="0" disallow="pedestrian" speed="10.92" length="17.64" shape="689.60,498.40 694.81,498.86 699.06,500.23 702.33,502.52 704.65,505.72"/>
    </edge>
    <edge id=":13_0" function="internal">
        <lane id=":13_0_0" index="0" disallow="pedestrian" speed="20.00" length="12.40" shape="495.20,406.20 495.20,393.80"/>
        <lane id=":13_0_1" index="1" disallow="pedestrian" speed="20.00" length="12.40" shape="498.40,406.20 498.40,393.80"/>
    </edge>
    <edge id=":13_2" function="internal">
        <lane id=":13_2_0" index="0" disallow="pedestrian" speed="8.49" length="3.28" shape="498.40,406.20 499.11,402.99"/>
    </edge>
    <edge id=":13_8" function="internal">
        <lane id=":13_8_0" index="0" disallow="pedestrian" speed="8.49" length="12.82" shape="499.11,402.99 499.15,402.79 501.40,400.35 505.15,398.89 510.40,398.40"/>
    </edge>
    <edge id=":13_3" function="internal">
        <lane id=":13_3_0" index="0" disallow="pedestrian" speed="6.25" length="8.24" shape="510.40,401.60 507.95,401.89 506.20,402.75 505.15,404.19 504.80,406.20"/>
    </edge>
    <edge id=":13_4" function="internal">
        <lane id=":13_4_0" index="0" disallow="pedestrian" speed="8.49" length="16.11" shape="510.40,401.60 505.15,401.11 501.40,399.65 499.15,397.21 498.40,393.80"/>
    </edge>
    <edge id=":13_5" function="internal">
        <lane id=":13_5_0" index="0" disallow="pedestrian" speed="6.25" length="8.24" shape="504.80,393.80 505.15,395.81 506.20,397.25 507.95,398.11 510.40,398.40"/>
    </edge>
    <edge id=":13_6" function="internal">
        <lane id=":13_6_0" index="0" disallow="pedestrian" speed="20.00" length="12.40" shape="504.80,393.80 504.80,406.20"/>
        <lane id=":13_6_1" index="1" disallow="pedestrian" speed="20.00" length="12.40" shape="501.60,393.80 501.60,406.20"/>
    </edge>
    <edge id=":14_0" function="internal">
        <lane id=":14_0_0" index="0" disallow="pedestrian" speed="6.51" length="9.03" shape="598.40,407.20 598.05,404.75 597.00,403.00 595.25,401.95 592.80,401.60"/>
    </edge>
    <edge id=":14_1" function="internal">
        <lane id=":14_1_0" index="0" disallow="pedestrian" speed="14.00" length="14.40" shape="598.40,407.20 598.40,392.80"/>
    </edge>
    <edge id=":14_2" function="internal">
        <lane id=":14_2_0" index="0" disallow="pedestrian" speed="8.00" length="4.07" shape="598.40,407.20 598.95,403.35 599.04,403.20"/>
    </edge>
    <edge id=":14_12" function="internal">
        <lane id=":14_12_0" index="0" disallow="pedestrian" speed="8.00" length="10.13" shape="599.04,403.20 600.60,400.60 603.35,398.95 607.20,398.40"/>
    </edge>
    <edge id=":14_3" function="internal">
        <lane id=":14_3_0" index="0" disallow="pedestrian" speed="6.51" length="9.03" shape="607.20,401.60 604.75,401.95 603.00,403.00 601.95,404.75 601.60,407.20"/>
    </edge>
    <edge id=":14_4" function="internal">
        <lane id=":14_4_0" index="0" disallow="pedestrian" speed="14.00" length="14.40" shape="607.20,401.60 592.80,401.60"/>
    </edge>
    <edge id=":14_5" function="internal">
        <lane id=":14_5_0" index="0" disallow="pedestrian" speed="8.00" length="14.19" shape="607.20,401.60 603.35,401.05 600.60,399.40 598.95,396.65 598.40,392.80"/>
    </edge>
    <edge id=":14_6" function="internal">
        <lane id=":14_6_0" index="0" disallow="pedestrian" speed="6.51" length="9.03" shape="601.60,392.80 601.95,395.25 603.00,397.00 604.75,398.05 607.20,398.40"/>
    </edge>
    <edge id=":14_7" function="internal">
        <lane id=":14_7_0" index="0" disallow="pedestrian" speed="14.00" length="14.40" shape="601.60,392.80 601.60,407.20"/>
    </edge>
    <edge id=":14_8" function="internal">
        <lane id=":14_8_0" index="0" disallow="pedestrian" speed="8.00" length="4.07" shape="601.60,392.80 601.05,396.65 600.96,396.80"/>
    </edge>
    <edge id=":14_13" function="internal">
        <lane id=":14_13_0" index="0" disallow="pedestrian" speed="8.00" length="10.13" shape="600.96,396.80 599.40,399.40 596.65,401.05 592.80,401.60"/>
    </edge>
    <edge id=":14_9" function="internal">
        <lane id=":14_9_0" index="0" disallow="pedestrian" speed="6.51" length="9.03" shape="592.80,398.40 595.25,398.05 597.00,397.00 598.05,395.25 598.40,392.80"/>
    </edge>
    <edge id=":14_10" function="internal">
        <lane id=":14_10_0" index="0" disallow="pedestrian" speed="14.00" length="14.40" shape="592.80,398.40 607.20,398.40"/>
    </edge>
    <edge id=":14_11" function="internal">
        <lane id=":14_11_0" index="0" disallow="pedestrian" speed="8.00" length="14.19" shape="592.80,398.40 596.65,398.95 599.40,400.60 601.05,403.35 601.60,407.20"/>
    </edge>
    <edge id=":15_0" function="internal">
        <lane id=":15_0_0" index="0" disallow="pedestrian" speed="6.25" length="8.24" shape="695.20,406.20 694.85,404.19 693.80,402.75 692.05,401.89 689.60,401.60"/>
    </edge>
    <edge id=":15_1" function="internal">
        <lane id=":15_1_0" index="0" disallow="pedestrian" speed="20.00" length="12.40" shape="695.20,406.20 695.20,393.80"/>
        <lane id=":15_1_1" index="1" disallow="pedestrian" speed="20.00" length="12.40" shape="698.40,406.20 698.40,393.80"/>
    </edge>
    <edge id=":15_3" function="internal">
        <lane id=":15_3_0" index="0" disallow="pedestrian" speed="20.00" length="12.40" shape="704.80,393.80 704.80,406.20"/>
        <lane id=":15_3_1" index="1" disallow="pedestrian" speed="20.00" length="12.40" shape="701.60,393.80 701.60,406.20"/>
    </edge>
    <edge id=":15_5" function="internal">
        <lane id=":15_5_0" index="0" disallow="pedestrian" speed="8.49" length="3.28" shape="701.60,393.80 700.89,397.01"/>
    </edge>
    <edge id=":15_8" function="internal">
        <lane id=":15_8_0" index="0" disallow="pedestrian" speed="8.49" length="12.82" shape="700.89,397.01 700.85,397.21 698.60,399.65 694.85,401.11 689.60,401.60"/>
    </edge>
    <edge id=":15_6" function="internal">
        <lane id=":15_6_0" index="0" disallow="pedestrian" speed="6.25" length="8.24" shape="689.60,398.40 692.05,398.11 693.80,397.25 694.85,395.81 695.20,393.80"/>
    </edge>
    <edge id=":15_7" function="internal">
        <lane id=":15_7_0" index="0" disallow="pedestrian" speed="8.49" length="16.11" shape="689.60,398.40 694.85,398.89 698.60,400.35 700.85,402.79 701.60,406.20"/>
    </edge>
    <edge id=":16_0" function="internal">
        <lane id=":16_0_0" index="0" disallow="pedestrian" speed="8.55" length="10.55" shape="495.20,310.40 494.96,307.03 494.26,304.35 493.07,302.37 491.42,301.08"/>
        <lane id=":16_0_1" index="1" disallow="pedestrian" speed="9.80" length="14.09" shape="498.40,310.40 498.05,306.11 497.01,302.65 495.28,300.02 492.85,298.21"/>
    </edge>
    <edge id=":16_2" function="internal">
        <lane id=":16_2_0" index="0" disallow="pedestrian" speed="9.26" length="19.35" shape="498.40,310.40 499.15,305.15 501.40,301.40 505.15,299.15 510.40,298.40"/>
    </edge>
    <edge id=":16_3" function="internal">
        <lane id=":16_3_0" index="0" disallow="pedestrian" speed="6.51" length="9.03" shape="510.40,304.80 507.95,305.15 506.20,306.20 505.15,307.95 504.80,310.40"/>
    </edge>
    <edge id=":16_4" function="internal">
        <lane id=":16_4_0" index="0" disallow="pedestrian" speed="23.24" length="18.91" shape="510.40,304.80 504.57,304.83 500.53,304.56 496.68,303.48 491.42,301.08"/>
        <lane id=":16_4_1" index="1" disallow="pedestrian" speed="22.35" length="18.91" shape="510.40,301.60 505.01,301.63 501.27,301.41 497.71,300.43 492.85,298.21"/>
    </edge>
    <edge id=":16_6" function="internal">
        <lane id=":16_6_0" index="0" disallow="pedestrian" speed="20.45" length="15.93" shape="495.71,292.49 499.78,294.32 502.76,295.10 505.89,295.25 510.40,295.20"/>
        <lane id=":16_6_1" index="1" disallow="pedestrian" speed="21.42" length="15.93" shape="494.28,295.35 498.74,297.38 502.02,298.25 505.45,298.44 510.40,298.40"/>
    </edge>
    <edge id=":16_8" function="internal">
        <lane id=":16_8_0" index="0" disallow="pedestrian" speed="10.92" length="3.64" shape="494.28,295.35 497.24,297.49"/>
    </edge>
    <edge id=":16_9" function="internal">
        <lane id=":16_9_0" index="0" disallow="pedestrian" speed="10.92" length="14.00" shape="497.24,297.49 497.48,297.67 499.77,300.94 501.14,305.19 501.60,310.40"/>
    </edge>
    <edge id=":17_0" function="internal">
        <lane id=":17_0_0" index="0" disallow="pedestrian" speed="6.25" length="8.24" shape="598.40,310.40 598.11,307.95 597.25,306.20 595.81,305.15 593.80,304.80"/>
    </edge>
    <edge id=":17_1" function="internal">
        <lane id=":17_1_0" index="0" disallow="pedestrian" speed="8.49" length="16.11" shape="598.40,310.40 598.89,305.15 600.35,301.40 602.79,299.15 606.20,298.40"/>
    </edge>
    <edge id=":17_2" function="internal">
        <lane id=":17_2_0" index="0" disallow="pedestrian" speed="6.25" length="8.24" shape="606.20,304.80 604.19,305.15 602.75,306.20 601.89,307.95 601.60,310.40"/>
    </edge>
    <edge id=":17_3" function="internal">
        <lane id=":17_3_0" index="0" disallow="pedestrian" speed="20.00" length="12.40" shape="606.20,304.80 593.80,304.80"/>
        <lane id=":17_3_1" index="1" disallow="pedestrian" speed="20.00" length="12.40" shape="606.20,301.60 593.80,301.60"/>
    </edge>
    <edge id=":17_5" function="internal">
        <lane id=":17_5_0" index="0" disallow="pedestrian" speed="20.00" length="12.40" shape="593.80,295.20 606.20,295.20"/>
        <lane id=":17_5_1" index="1" disallow="pedestrian" speed="20.00" length="12.40" shape="593.80,298.40 606.20,298.40"/>
    </edge>
    <edge id=":17_7" function="internal">
        <lane id=":17_7_0" index="0" disallow="pedestrian" speed="8.49" length="3.28" shape="593.80,298.40 597.01,299.11"/>
    </edge>
    <edge id=":17_8" function="internal">
        <lane id=":17_8_0" index="0" disallow="pedestrian" speed="8.49" length="12.82" shape="597.01,299.11 597.21,299.15 599.65,301.40 601.11,305.15 601.60,310.40"/>
    </edge>
    <edge id=":18_0" function="internal">
        <lane id=":18_0_0" index="0" disallow="pedestrian" speed="6.51" length="9.03" shape="695.20,310.40 694.85,307.95 693.80,306.20 692.05,305.15 689.60,304.80"/>
    </edge>
    <edge id=":18_1" function="internal">
        <lane id=":18_1_0" index="0" disallow="pedestrian" speed="14.24" length="18.88" shape="695.20,310.40 695.53,304.65 696.52,299.79 698.17,295.82 700.48,292.73"/>
        <lane id=":18_1_1" index="1" disallow="pedestrian" speed="13.28" length="16.37" shape="698.40,310.40 698.67,305.29 699.49,301.02 700.84,297.59 702.74,294.99"/>
    </edge>
    <edge id=":18_3" function="internal">
        <lane id=":18_3_0" index="0" disallow="pedestrian" speed="11.13" length="11.37" shape="707.27,299.52 706.19,301.13 705.42,303.47 704.95,306.57 704.80,310.40"/>
        <lane id=":18_3_1" index="1" disallow="pedestrian" speed="12.25" length="13.87" shape="705.01,297.26 703.52,299.36 702.45,302.25 701.81,305.93 701.60,310.40"/>
    </edge>
    <edge id=":18_5" function="internal">
        <lane id=":18_5_0" index="0" disallow="pedestrian" speed="13.28" length="2.34" shape="705.01,297.26 703.12,298.64"/>
    </edge>
    <edge id=":18_9" function="internal">
        <lane id=":18_9_0" index="0" disallow="pedestrian" speed="13.28" length="14.03" shape="703.12,298.64 702.41,299.16 698.98,300.51 694.71,301.33 689.60,301.60"/>
    </edge>
    <edge id=":18_6" function="internal">
        <lane id=":18_6_0" index="0" disallow="pedestrian" speed="11.28" length="11.70" shape="689.60,295.20 693.10,295.37 695.65,295.44 697.90,294.78 700.48,292.73"/>
        <lane id=":18_6_1" index="1" disallow="pedestrian" speed="12.25" length="13.87" shape="689.60,298.40 694.07,298.19 697.75,297.55 700.64,296.48 702.74,294.99"/>
    </edge>
    <edge id=":18_8" function="internal">
        <lane id=":18_8_0" index="0" disallow="pedestrian" speed="9.26" length="19.35" shape="689.60,298.40 694.85,299.15 698.60,301.40 700.85,305.15 701.60,310.40"/>
    </edge>
    <edge id=":19_0" function="internal">
        <lane id=":19_0_0" index="0" allow="bus" speed="7.42" length="6.13" shape="102.95,106.84 101.48,106.29 100.00,106.10 98.52,106.29 97.05,106.84"/>
        <lane id=":19_0_1" index="1" allow="bus" speed="8.92" length="9.10" shape="104.38,103.98 102.19,103.16 100.00,102.88 97.81,103.16 95.62,103.98"/>
    </edge>
    <edge id=":19_2" function="internal">
        <lane id=":19_2_0" index="0" allow="bus" speed="25.41" length="7.50" shape="101.37,94.58 102.89,95.97 104.06,96.76 105.36,97.37 107.24,98.26"/>
        <lane id=":19_2_1" index="1" allow="bus" speed="27.21" length="7.50" shape="99.11,96.84 100.84,98.45 102.18,99.37 103.66,100.10 105.81,101.12"/>
    </edge>
    <edge id=":19_4" function="internal">
        <lane id=":19_4_0" index="0" allow="bus" speed="6.08" length="5.00" shape="99.11,96.84 100.24,98.64 100.03,100.43 99.33,101.24"/>
    </edge>
    <edge id=":19_5" function="internal">
        <lane id=":19_5_0" index="0" allow="bus" speed="6.08" length="4.65" shape="99.33,101.24 98.49,102.21 95.62,103.98"/>
    </edge>
    <edge id=":2_0" function="internal">
        <lane id=":2_0_0" index="0" allow="bus" speed="10.66" length="7.43" shape="306.36,1199.12 305.37,1200.74 304.92,1201.98 304.80,1203.32 304.80,1205.24"/>
        <lane id=":2_0_1" index="1" allow="bus" speed="12.07" length="7.43" shape="303.69,1197.34 302.41,1199.44 301.80,1201.04 301.61,1202.76 301.60,1205.24"/>
    </edge>
    <edge id=":2_2" function="internal">
        <lane id=":2_2_0" index="0" allow="bus" speed="6.45" length="4.87" shape="293.87,1195.20 295.49,1195.11 296.78,1194.85 297.74,1194.41 298.37,1193.79"/>
        <lane id=":2_2_1" index="1" allow="bus" speed="8.09" length="8.00" shape="293.87,1198.40 296.30,1198.22 298.30,1197.69 299.88,1196.81 301.03,1195.57"/>
    </edge>
    <edge id=":2_4" function="internal">
        <lane id=":2_4_0" index="0" allow="bus" speed="7.33" length="11.76" shape="293.87,1198.40 297.25,1198.83 299.67,1200.11 301.12,1202.25 301.60,1205.24"/>
    </edge>
    <edge id=":20_0" function="internal">
        <lane id=":20_0_0" index="0" allow="bus" speed="15.58" length="9.48" shape="904.82,103.45 902.47,104.42 901.05,105.46 899.82,106.82 898.05,108.74"/>
        <lane id=":20_0_1" index="1" allow="bus" speed="16.82" length="9.48" shape="903.81,100.42 901.05,101.53 899.34,102.71 897.87,104.25 895.79,106.47"/>
    </edge>
    <edge id=":20_2" function="internal">
        <lane id=":20_2_0" index="0" allow="bus" speed="7.72" length="6.79" shape="903.81,100.42 901.54,100.59 899.34,99.57 897.89,98.06"/>
    </edge>
    <edge id=":20_5" function="internal">
        <lane id=":20_5_0" index="0" allow="bus" speed="7.72" length="4.93" shape="897.89,98.06 897.23,97.36 895.19,93.96"/>
    </edge>
    <edge id=":20_3" function="internal">
        <lane id=":20_3_0" index="0" allow="bus" speed="6.65" length="7.15" shape="891.26,101.95 892.42,100.45 892.98,98.86 892.95,97.17 892.33,95.39"/>
        <lane id=":20_3_1" index="1" allow="bus" speed="8.17" length="11.18" shape="893.53,104.21 895.33,101.87 896.21,99.38 896.16,96.75 895.19,93.96"/>
    </edge>
    <edge id=":21_0" function="internal">
        <lane id=":21_0_0" index="0" allow="bus" speed="6.49" length="14.35" shape="304.80,1250.00 304.29,1254.56 302.75,1256.64 300.19,1256.25 296.61,1253.39"/>
        <lane id=":21_0_1" index="1" allow="bus" speed="4.12" length="4.78" shape="301.60,1250.00 301.43,1251.52 300.92,1252.21 300.06,1252.08 298.87,1251.13"/>
    </edge>
    <edge id=":22_0" function="internal">
        <lane id=":22_0_0" index="0" allow="bus" speed="6.49" length="14.35" shape="246.61,1203.39 243.75,1199.81 243.36,1197.25 245.44,1195.71 250.00,1195.20"/>
        <lane id=":22_0_1" index="1" allow="bus" speed="4.12" length="4.78" shape="248.87,1201.13 247.92,1199.94 247.79,1199.08 248.48,1198.57 250.00,1198.40"/>
    </edge>
    <edge id=":23_0" function="internal">
        <lane id=":23_0_0" index="0" allow="bus" speed="6.49" length="14.35" shape="53.39,953.39 49.81,956.25 47.25,956.64 45.71,954.56 45.20,950.00"/>
        <lane id=":23_0_1" index="1" allow="bus" speed="4.12" length="4.78" shape="51.13,951.13 49.94,952.08 49.08,952.21 48.57,951.52 48.40,950.00"/>
    </edge>
    <edge id=":24_0" function="internal">
        <lane id=":24_0_0" index="0" allow="bus" speed="6.49" length="14.35" shape="45.20,850.00 45.71,845.44 47.25,843.36 49.81,843.75 53.39,846.61"/>
        <lane id=":24_0_1" index="1" allow="bus" speed="4.12" length="4.78" shape="48.40,850.00 48.57,848.48 49.08,847.79 49.94,847.92 51.13,848.87"/>
    </edge>
    <edge id=":25_0" function="internal">
        <lane id=":25_0_0" index="0" allow="bus" speed="6.78" length="16.90" shape="2.15,154.29 -3.09,156.31 -5.90,155.90 -6.31,153.09 -4.29,147.85"/>
        <lane id=":25_0_1" index="1" allow="bus" speed="4.27" length="5.63" shape="0.72,151.43 -1.03,152.10 -1.97,151.97 -2.10,151.03 -1.43,149.28"/>
    </edge>
    <edge id=":26_0" function="internal">
        <lane id=":26_0_0" index="0" allow="bus" speed="6.10" length="9.74" shape="45.71,47.85 47.30,45.54 49.12,44.56 51.15,44.92 53.39,46.61"/>
        <lane id=":26_0_1" index="1" allow="bus" speed="3.92" length="3.25" shape="48.57,49.28 49.10,48.51 49.71,48.19 50.38,48.31 51.13,48.87"/>
    </edge>
    <edge id=":27_0" function="internal">
        <lane id=":27_0_0" index="0" allow="bus" speed="6.38" length="13.31" shape="845.71,2.15 844.30,-1.78 844.74,-4.22 847.03,-5.18 851.16,-4.66"/>
        <lane id=":27_0_1" index="1" allow="bus" speed="4.06" length="4.44" shape="848.57,0.72 848.10,-0.59 848.25,-1.41 849.01,-1.73 850.39,-1.55"/>
    </edge>
    <edge id=":28_0" function="internal">
        <lane id=":28_0_0" index="0" allow="bus" speed="7.01" length="18.81" shape="1051.16,45.34 1057.18,47.42 1059.25,49.64 1057.36,52.02 1051.52,54.55"/>
        <lane id=":28_0_1" index="1" allow="bus" speed="4.39" length="6.27" shape="1050.39,48.45 1052.39,49.14 1053.08,49.88 1052.45,50.67 1050.51,51.52"/>
    </edge>
    <edge id=":29_0" function="internal">
        <lane id=":29_0_0" index="0" allow="bus" speed="6.49" length="14.35" shape="1346.61,646.61 1350.19,643.75 1352.75,643.36 1354.29,645.44 1354.80,650.00"/>
        <lane id=":29_0_1" index="1" allow="bus" speed="4.12" length="4.78" shape="1348.87,648.87 1350.06,647.92 1350.92,647.79 1351.43,648.48 1351.60,650.00"/>
    </edge>
    <edge id=":3_0" function="internal">
        <lane id=":3_0_0" index="0" allow="bus" speed="7.22" length="4.55" shape="1095.20,1105.57 1095.15,1103.95 1094.99,1102.68 1094.74,1101.75 1094.38,1101.17"/>
        <lane id=":3_0_1" index="1" allow="bus" speed="8.85" length="7.04" shape="1098.40,1105.57 1098.29,1103.31 1097.96,1101.45 1097.41,1099.98 1096.64,1098.90"/>
    </edge>
    <edge id=":3_2" function="internal">
        <lane id=":3_2_0" index="0" allow="bus" speed="7.28" length="11.56" shape="1098.40,1105.57 1098.85,1102.43 1100.19,1100.19 1102.43,1098.85 1105.57,1098.40"/>
    </edge>
    <edge id=":3_3" function="internal">
        <lane id=":3_3_0" index="0" allow="bus" speed="7.22" length="4.55" shape="1101.17,1094.38 1101.75,1094.74 1102.68,1094.99 1103.95,1095.15 1105.57,1095.20"/>
        <lane id=":3_3_1" index="1" allow="bus" speed="8.85" length="7.04" shape="1098.90,1096.64 1099.98,1097.41 1101.45,1097.96 1103.31,1098.29 1105.57,1098.40"/>
    </edge>
    <edge id=":30_0" function="internal">
        <lane id=":30_0_0" index="0" allow="bus" speed="6.49" length="14.35" shape="1354.80,750.00 1354.29,754.56 1352.75,756.64 1350.19,756.25 1346.61,753.39"/>
        <lane id=":30_0_1" index="1" allow="bus" speed="4.12" length="4.78" shape="1351.60,750.00 1351.43,751.52 1350.92,752.21 1350.06,752.08 1348.87,751.13"/>
    </edge>
    <edge id=":31_0" function="internal">
        <lane id=":31_0_0" index="0" allow="bus" speed="6.49" length="14.35" shape="1200.00,1095.20 1204.56,1095.71 1206.64,1097.25 1206.25,1099.81 1203.39,1103.39"/>
        <lane id=":31_0_1" index="1" allow="bus" speed="4.12" length="4.78" shape="1200.00,1098.40 1201.52,1098.57 1202.21,1099.08 1202.08,1099.94 1201.13,1101.13"/>
    </edge>
    <edge id=":32_0" function="internal">
        <lane id=":32_0_0" index="0" allow="bus" speed="6.49" length="14.35" shape="1103.39,1203.39 1099.81,1206.25 1097.25,1206.64 1095.71,1204.56 1095.20,1200.00"/>
        <lane id=":32_0_1" index="1" allow="bus" speed="4.12" length="4.78" shape="1101.13,1201.13 1099.94,1202.08 1099.08,1202.21 1098.57,1201.52 1098.40,1200.00"/>
    </edge>
    <edge id=":33_0" function="internal">
        <lane id=":33_0_0" index="0" allow="bus" speed="5.74" length="12.99" shape="950.00,1295.20 953.17,1296.37 954.68,1299.10 954.29,1302.19 951.78,1304.46"/>
        <lane id=":33_0_1" index="1" allow="bus" speed="4.90" length="8.89" shape="950.00,1298.40 953.15,1298.59 954.30,1299.17 953.45,1300.14 950.59,1301.49"/>
    </edge>
    <edge id=":34_0" function="internal">
        <lane id=":34_0_0" index="0" allow="bus" speed="5.76" length="12.93" shape="701.78,1404.46 698.41,1404.57 695.99,1402.64 695.17,1399.66 696.61,1396.61"/>
        <lane id=":34_0_1" index="1" allow="bus" speed="4.80" length="8.41" shape="700.59,1401.49 697.77,1402.41 696.54,1402.28 696.91,1401.10 698.87,1398.87"/>
    </edge>
    <edge id=":4_0" function="internal">
        <lane id=":4_0_0" index="0" allow="bus" speed="7.22" length="4.55" shape="103.15,904.80 102.48,904.96 101.65,905.43 100.64,906.22 99.46,907.33"/>
        <lane id=":4_0_1" index="1" allow="bus" speed="8.85" length="7.04" shape="103.15,901.60 101.85,901.82 100.42,902.47 98.87,903.55 97.20,905.07"/>
    </edge>
    <edge id=":4_2" function="internal">
        <lane id=":4_2_0" index="0" allow="bus" speed="7.22" length="4.55" shape="99.46,892.67 100.64,893.78 101.65,894.57 102.48,895.04 103.15,895.20"/>
        <lane id=":4_2_1" index="1" allow="bus" speed="8.85" length="7.04" shape="97.20,894.93 98.87,896.45 100.42,897.53 101.85,898.18 103.15,898.40"/>
    </edge>
    <edge id=":4_4" function="internal">
        <lane id=":4_4_0" index="0" allow="bus" speed="7.28" length="11.56" shape="97.20,894.93 99.10,897.47 99.73,900.00 99.10,902.53 97.20,905.07"/>
    </edge>
    <edge id=":5_0" function="internal">
        <lane id=":5_0_0" index="0" disallow="pedestrian" speed="12.66" length="20.44" shape="510.40,904.80 506.48,905.54 502.55,907.77 498.61,911.47 494.66,916.66"/>
    </edge>
    <edge id=":5_1" function="internal">
        <lane id=":5_1_0" index="0" disallow="pedestrian" speed="30.00" length="27.23" shape="510.40,904.80 483.17,904.80"/>