<?xml version="1.0" encoding="UTF-8"?>

<!-- generated on 2022-03-04 14:15:15 by Eclipse SUMO netconvert Version 1.12.0
<configuration xmlns:xsi="http://www.w3.org/2001/XMLSchema-instance" xsi:noNamespaceSchemaLocation="http://sumo.dlr.de/xsd/netconvertConfiguration.xsd">

    <input>
        <node-files value="lucerne.nod.xml"/>
        <edge-files value="lucerne.edg.xml"/>
    </input>

    <output>
        <output-file value="lucerne.net.xml"/>
    </output>

    <report>
        <aggregate-warnings value="5"/>
    </report>

</configuration>
-->

<net version="1.9" junctionCornerDetail="5" limitTurnSpeed="5.50" xmlns:xsi="http://www.w3.org/2001/XMLSchema-instance" xsi:noNamespaceSchemaLocation="http://sumo.dlr.de/xsd/net_file.xsd">

    <location netOffset="0.00,1200.00" convBoundary="0.00,0.00,1200.00,1200.00" origBoundary="0.00,-1200.00,1200.00,0.00" projParameter="!"/>

    <edge id=":1_0" function="internal">
        <lane id=":1_0_0" index="0" speed="3.65" length="4.67" shape="701.43,1199.28 701.25,1200.72 700.72,1201.43 699.82,1201.43 698.57,1200.72"/>
    </edge>
    <edge id=":10_0" function="internal">
        <lane id=":10_0_0" index="0" speed="14.00" length="14.40" shape="395.20,407.20 395.20,392.80"/>
        <lane id=":10_0_1" index="1" speed="14.00" length="14.40" shape="398.40,407.20 398.40,392.80"/>
    </edge>
    <edge id=":10_2" function="internal">
        <lane id=":10_2_0" index="0" speed="8.67" length="3.71" shape="398.40,407.20 399.11,403.56"/>
    </edge>
    <edge id=":10_3" function="internal">
        <lane id=":10_3_0" index="0" speed="3.65" length="1.44" shape="398.40,407.20 399.20,406.00"/>
    </edge>
    <edge id=":10_11" function="internal">
        <lane id=":10_11_0" index="0" speed="8.67" length="13.14" shape="399.11,403.56 399.15,403.35 401.40,400.60 405.15,398.95 410.40,398.40"/>
    </edge>
    <edge id=":10_12" function="internal">
        <lane id=":10_12_0" index="0" speed="3.65" length="3.23" shape="399.20,406.00 400.00,405.60 400.80,406.00 401.60,407.20"/>
    </edge>
    <edge id=":10_4" function="internal">
        <lane id=":10_4_0" index="0" speed="6.51" length="9.03" shape="410.40,401.60 407.95,401.95 406.20,403.00 405.15,404.75 404.80,407.20"/>
    </edge>
    <edge id=":10_5" function="internal">
        <lane id=":10_5_0" index="0" speed="8.67" length="16.85" shape="410.40,401.60 405.15,401.05 401.40,399.40 399.15,396.65 398.40,392.80"/>
    </edge>
    <edge id=":10_6" function="internal">
        <lane id=":10_6_0" index="0" speed="3.65" length="1.44" shape="410.40,401.60 409.20,400.80"/>
    </edge>
    <edge id=":10_13" function="internal">
        <lane id=":10_13_0" index="0" speed="3.65" length="3.23" shape="409.20,400.80 408.80,400.00 409.20,399.20 410.40,398.40"/>
    </edge>
    <edge id=":10_7" function="internal">
        <lane id=":10_7_0" index="0" speed="6.51" length="9.03" shape="404.80,392.80 405.15,395.25 406.20,397.00 407.95,398.05 410.40,398.40"/>
    </edge>
    <edge id=":10_8" function="internal">
        <lane id=":10_8_0" index="0" speed="14.00" length="14.40" shape="404.80,392.80 404.80,407.20"/>
        <lane id=":10_8_1" index="1" speed="14.00" length="14.40" shape="401.60,392.80 401.60,407.20"/>
    </edge>
    <edge id=":10_10" function="internal">
        <lane id=":10_10_0" index="0" speed="3.65" length="1.44" shape="401.60,392.80 400.80,394.00"/>
    </edge>
    <edge id=":10_14" function="internal">
        <lane id=":10_14_0" index="0" speed="3.65" length="3.23" shape="400.80,394.00 400.00,394.40 399.20,394.00 398.40,392.80"/>
    </edge>
    <edge id=":11_0" function="internal">
        <lane id=":11_0_0" index="0" speed="14.00" length="14.40" shape="507.20,401.60 492.80,401.60"/>
    </edge>
    <edge id=":11_1" function="internal">
        <lane id=":11_1_0" index="0" speed="8.00" length="4.07" shape="507.20,401.60 503.35,401.05 503.20,400.96"/>
    </edge>
    <edge id=":11_2" function="internal">
        <lane id=":11_2_0" index="0" speed="3.65" length="1.44" shape="507.20,401.60 506.00,400.80"/>
    </edge>
    <edge id=":11_9" function="internal">
        <lane id=":11_9_0" index="0" speed="8.00" length="10.13" shape="503.20,400.96 500.60,399.40 498.95,396.65 498.40,392.80"/>
    </edge>
    <edge id=":11_10" function="internal">
        <lane id=":11_10_0" index="0" speed="3.65" length="3.23" shape="506.00,400.80 505.60,400.00 506.00,399.20 507.20,398.40"/>
    </edge>
    <edge id=":11_3" function="internal">
        <lane id=":11_3_0" index="0" speed="6.51" length="9.03" shape="501.60,392.80 501.95,395.25 503.00,397.00 504.75,398.05 507.20,398.40"/>
    </edge>
    <edge id=":11_4" function="internal">
        <lane id=":11_4_0" index="0" speed="8.00" length="14.19" shape="501.60,392.80 501.05,396.65 499.40,399.40 496.65,401.05 492.80,401.60"/>
    </edge>
    <edge id=":11_5" function="internal">
        <lane id=":11_5_0" index="0" speed="3.65" length="4.67" shape="501.60,392.80 500.80,394.00 500.00,394.40 499.20,394.00 498.40,392.80"/>
    </edge>
    <edge id=":11_6" function="internal">
        <lane id=":11_6_0" index="0" speed="6.51" length="9.03" shape="492.80,398.40 495.25,398.05 497.00,397.00 498.05,395.25 498.40,392.80"/>
    </edge>
    <edge id=":11_7" function="internal">
        <lane id=":11_7_0" index="0" speed="14.00" length="14.40" shape="492.80,398.40 507.20,398.40"/>
    </edge>
    <edge id=":11_8" function="internal">
        <lane id=":11_8_0" index="0" speed="3.65" length="1.44" shape="492.80,398.40 494.00,399.20"/>
    </edge>
    <edge id=":11_11" function="internal">
        <lane id=":11_11_0" index="0" speed="3.65" length="3.23" shape="494.00,399.20 494.40,400.00 494.00,400.80 492.80,401.60"/>
    </edge>
    <edge id=":12_0" function="internal">
        <lane id=":12_0_0" index="0" speed="8.62" length="10.75" shape="598.17,407.08 596.61,404.68 594.66,402.97 592.32,401.94 589.60,401.60"/>
    </edge>
    <edge id=":12_1" function="internal">
        <lane id=":12_1_0" index="0" speed="14.00" length="14.07" shape="598.17,407.08 596.33,403.12 595.46,400.23 595.21,397.19 595.20,392.80"/>
        <lane id=":12_1_1" index="1" speed="14.00" length="14.07" shape="601.03,405.64 599.39,402.09 598.62,399.48 598.40,396.75 598.40,392.80"/>
    </edge>
    <edge id=":12_3" function="internal">
        <lane id=":12_3_0" index="0" speed="3.65" length="1.44" shape="601.03,405.64 601.21,404.21"/>
    </edge>
    <edge id=":12_11" function="internal">
        <lane id=":12_11_0" index="0" speed="3.65" length="3.23" shape="601.21,404.21 601.75,403.50 602.64,403.50 603.90,404.21"/>
    </edge>
    <edge id=":12_4" function="internal">
        <lane id=":12_4_0" index="0" speed="14.00" length="11.09" shape="604.80,392.80 604.79,395.87 604.93,397.99 605.49,400.02 606.76,402.78"/>
        <lane id=":12_4_1" index="1" speed="14.00" length="11.09" shape="601.60,392.80 601.59,396.31 601.77,398.74 602.44,401.05 603.90,404.21"/>
    </edge>
    <edge id=":12_6" function="internal">
        <lane id=":12_6_0" index="0" speed="8.67" length="3.71" shape="601.60,392.80 600.89,396.44"/>
    </edge>
    <edge id=":12_7" function="internal">
        <lane id=":12_7_0" index="0" speed="3.65" length="1.44" shape="601.60,392.80 600.80,394.00"/>
    </edge>
    <edge id=":12_12" function="internal">
        <lane id=":12_12_0" index="0" speed="8.67" length="13.14" shape="600.89,396.44 600.85,396.65 598.60,399.40 594.85,401.05 589.60,401.60"/>
    </edge>
    <edge id=":12_13" function="internal">
        <lane id=":12_13_0" index="0" speed="3.65" length="3.23" shape="600.80,394.00 600.00,394.40 599.20,394.00 598.40,392.80"/>
    </edge>
    <edge id=":12_8" function="internal">
        <lane id=":12_8_0" index="0" speed="6.51" length="9.03" shape="589.60,398.40 592.05,398.05 593.80,397.00 594.85,395.25 595.20,392.80"/>
    </edge>
    <edge id=":12_9" function="internal">
        <lane id=":12_9_0" index="0" speed="10.48" length="16.19" shape="589.60,398.40 594.76,398.76 598.87,399.85 601.91,401.67 603.90,404.21"/>
    </edge>
    <edge id=":12_10" function="internal">
        <lane id=":12_10_0" index="0" speed="3.65" length="1.44" shape="589.60,398.40 590.80,399.20"/>
    </edge>
    <edge id=":12_14" function="internal">
        <lane id=":12_14_0" index="0" speed="3.65" length="3.23" shape="590.80,399.20 591.20,400.00 590.80,400.80 589.60,401.60"/>
    </edge>
    <edge id=":13_0" function="internal">
        <lane id=":13_0_0" index="0" speed="14.00" length="14.40" shape="395.20,307.20 395.20,292.80"/>
        <lane id=":13_0_1" index="1" speed="14.00" length="14.40" shape="398.40,307.20 398.40,292.80"/>
    </edge>
    <edge id=":13_2" function="internal">
        <lane id=":13_2_0" index="0" speed="8.67" length="3.71" shape="398.40,307.20 399.11,303.56"/>
    </edge>
    <edge id=":13_3" function="internal">
        <lane id=":13_3_0" index="0" speed="3.65" length="1.44" shape="398.40,307.20 399.20,306.00"/>
    </edge>
    <edge id=":13_11" function="internal">
        <lane id=":13_11_0" index="0" speed="8.67" length="13.14" shape="399.11,303.56 399.15,303.35 401.40,300.60 405.15,298.95 410.40,298.40"/>
    </edge>
    <edge id=":13_12" function="internal">
        <lane id=":13_12_0" index="0" speed="3.65" length="3.23" shape="399.20,306.00 400.00,305.60 400.80,306.00 401.60,307.20"/>
    </edge>
    <edge id=":13_4" function="internal">
        <lane id=":13_4_0" index="0" speed="6.51" length="9.03" shape="410.40,301.60 407.95,301.95 406.20,303.00 405.15,304.75 404.80,307.20"/>
    </edge>
    <edge id=":13_5" function="internal">
        <lane id=":13_5_0" index="0" speed="8.67" length="16.85" shape="410.40,301.60 405.15,301.05 401.40,299.40 399.15,296.65 398.40,292.80"/>
    </edge>
    <edge id=":13_6" function="internal">
        <lane id=":13_6_0" index="0" speed="3.65" length="4.67" shape="410.40,301.60 409.20,300.80 408.80,300.00 409.20,299.20 410.40,298.40"/>
    </edge>
    <edge id=":13_7" function="internal">
        <lane id=":13_7_0" index="0" speed="6.51" length="9.03" shape="404.80,292.80 405.15,295.25 406.20,297.00 407.95,298.05 410.40,298.40"/>
    </edge>
    <edge id=":13_8" function="internal">
        <lane id=":13_8_0" index="0" speed="14.00" length="14.40" shape="404.80,292.80 404.80,307.20"/>
        <lane id=":13_8_1" index="1" speed="14.00" length="14.40" shape="401.60,292.80 401.60,307.20"/>
    </edge>
    <edge id=":13_10" function="internal">
        <lane id=":13_10_0" index="0" speed="3.65" length="1.44" shape="401.60,292.80 400.80,294.00"/>
    </edge>
    <edge id=":13_13" function="internal">
        <lane id=":13_13_0" index="0" speed="3.65" length="3.23" shape="400.80,294.00 400.00,294.40 399.20,294.00 398.40,292.80"/>
    </edge>
    <edge id=":14_0" function="internal">
        <lane id=":14_0_0" index="0" speed="6.51" length="9.03" shape="498.40,307.20 498.05,304.75 497.00,303.00 495.25,301.95 492.80,301.60"/>
    </edge>
    <edge id=":14_1" function="internal">
        <lane id=":14_1_0" index="0" speed="14.00" length="14.40" shape="498.40,307.20 498.40,292.80"/>
    </edge>
    <edge id=":14_2" function="internal">
        <lane id=":14_2_0" index="0" speed="8.00" length="4.07" shape="498.40,307.20 498.95,303.35 499.04,303.20"/>
    </edge>
    <edge id=":14_3" function="internal">
        <lane id=":14_3_0" index="0" speed="3.65" length="1.44" shape="498.40,307.20 499.20,306.00"/>
    </edge>
    <edge id=":14_16" function="internal">
        <lane id=":14_16_0" index="0" speed="8.00" length="10.13" shape="499.04,303.20 500.60,300.60 503.35,298.95 507.20,298.40"/>
    </edge>
    <edge id=":14_17" function="internal">
        <lane id=":14_17_0" index="0" speed="3.65" length="3.23" shape="499.20,306.00 500.00,305.60 500.80,306.00 501.60,307.20"/>
    </edge>
    <edge id=":14_4" function="internal">
        <lane id=":14_4_0" index="0" speed="6.51" length="9.03" shape="507.20,301.60 504.75,301.95 503.00,303.00 501.95,304.75 501.60,307.20"/>
    </edge>
    <edge id=":14_5" function="internal">
        <lane id=":14_5_0" index="0" speed="14.00" length="14.40" shape="507.20,301.60 492.80,301.60"/>
    </edge>
    <edge id=":14_6" function="internal">
        <lane id=":14_6_0" index="0" speed="8.00" length="14.19" shape="507.20,301.60 503.35,301.05 500.60,299.40 498.95,296.65 498.40,292.80"/>
    </edge>
    <edge id=":14_7" function="internal">
        <lane id=":14_7_0" index="0" speed="3.65" length="4.67" shape="507.20,301.60 506.00,300.80 505.60,300.00 506.00,299.20 507.20,298.40"/>
    </edge>
    <edge id=":14_8" function="internal">
        <lane id=":14_8_0" index="0" speed="6.51" length="9.03" shape="501.60,292.80 501.95,295.25 503.00,297.00 504.75,298.05 507.20,298.40"/>
    </edge>
    <edge id=":14_9" function="internal">
        <lane id=":14_9_0" index="0" speed="14.00" length="14.40" shape="501.60,292.80 501.60,307.20"/>
    </edge>
    <edge id=":14_10" function="internal">
        <lane id=":14_10_0" index="0" speed="8.00" length="4.07" shape="501.60,292.80 501.05,296.65 500.96,296.80"/>
    </edge>
    <edge id=":14_11" function="internal">
        <lane id=":14_11_0" index="0" speed="3.65" length="1.44" shape="501.60,292.80 500.80,294.00"/>
    </edge>
    <edge id=":14_18" function="internal">
        <lane id=":14_18_0" index="0" speed="8.00" length="10.13" shape="500.96,296.80 499.40,299.40 496.65,301.05 492.80,301.60"/>
    </edge>
    <edge id=":14_19" function="internal">
        <lane id=":14_19_0" index="0" speed="3.65" length="3.23" shape="500.80,294.00 500.00,294.40 499.20,294.00 498.40,292.80"/>
    </edge>
    <edge id=":14_12" function="internal">
        <lane id=":14_12_0" index="0" speed="6.51" length="9.03" shape="492.80,298.40 495.25,298.05 497.00,297.00 498.05,295.25 498.40,292.80"/>
    </edge>
    <edge id=":14_13" function="internal">
        <lane id=":14_13_0" index="0" speed="14.00" length="14.40" shape="492.80,298.40 507.20,298.40"/>
    </edge>
    <edge id=":14_14" function="internal">
        <lane id=":14_14_0" index="0" speed="8.00" length="14.19" shape="492.80,298.40 496.65,298.95 499.40,300.60 501.05,303.35 501.60,307.20"/>
    </edge>
    <edge id=":14_15" function="internal">
        <lane id=":14_15_0" index="0" speed="3.65" length="4.67" shape="492.80,298.40 494.00,299.20 494.40,300.00 494.00,300.80 492.80,301.60"/>
    </edge>
    <edge id=":15_0" function="internal">
        <lane id=":15_0_0" index="0" speed="6.51" length="9.03" shape="595.20,307.20 594.85,304.75 593.80,303.00 592.05,301.95 589.60,301.60"/>
    </edge>
    <edge id=":15_1" function="internal">
        <lane id=":15_1_0" index="0" speed="14.00" length="14.40" shape="595.20,307.20 595.20,292.80"/>
        <lane id=":15_1_1" index="1" speed="14.00" length="14.40" shape="598.40,307.20 598.40,292.80"/>
    </edge>
    <edge id=":15_3" function="internal">
        <lane id=":15_3_0" index="0" speed="3.65" length="1.44" shape="598.40,307.20 599.20,306.00"/>
    </edge>
    <edge id=":15_11" function="internal">
        <lane id=":15_11_0" index="0" speed="3.65" length="3.23" shape="599.20,306.00 600.00,305.60 600.80,306.00 601.60,307.20"/>
    </edge>
    <edge id=":15_4" function="internal">
        <lane id=":15_4_0" index="0" speed="14.00" length="14.40" shape="604.80,292.80 604.80,307.20"/>
        <lane id=":15_4_1" index="1" speed="14.00" length="14.40" shape="601.60,292.80 601.60,307.20"/>
    </edge>
    <edge id=":15_6" function="internal">
        <lane id=":15_6_0" index="0" speed="8.67" length="3.71" shape="601.60,292.80 600.89,296.44"/>
    </edge>
    <edge id=":15_7" function="internal">
        <lane id=":15_7_0" index="0" speed="3.65" length="1.44" shape="601.60,292.80 600.80,294.00"/>
    </edge>
    <edge id=":15_12" function="internal">
        <lane id=":15_12_0" index="0" speed="8.67" length="13.14" shape="600.89,296.44 600.85,296.65 598.60,299.40 594.85,301.05 589.60,301.60"/>
    </edge>
    <edge id=":15_13" function="internal">
        <lane id=":15_13_0" index="0" speed="3.65" length="3.23" shape="600.80,294.00 600.00,294.40 599.20,294.00 598.40,292.80"/>
    </edge>
    <edge id=":15_8" function="internal">
        <lane id=":15_8_0" index="0" speed="6.51" length="9.03" shape="589.60,298.40 592.05,298.05 593.80,297.00 594.85,295.25 595.20,292.80"/>
    </edge>
    <edge id=":15_9" function="internal">
        <lane id=":15_9_0" index="0" speed="8.67" length="16.85" shape="589.60,298.40 594.85,298.95 598.60,300.60 600.85,303.35 601.60,307.20"/>
    </edge>
    <edge id=":15_10" function="internal">
        <lane id=":15_10_0" index="0" speed="3.65" length="4.67" shape="589.60,298.40 590.80,299.20 591.20,300.00 590.80,300.80 589.60,301.60"/>
    </edge>
    <edge id=":16_0" function="internal">
        <lane id=":16_0_0" index="0" speed="7.92" length="8.97" shape="395.20,207.96 394.92,205.63 394.08,203.66 392.69,202.02 390.74,200.74"/>
        <lane id=":16_0_1" index="1" speed="9.27" length="12.53" shape="398.40,207.96 398.01,204.71 396.84,201.95 394.90,199.67 392.17,197.87"/>
    </edge>
    <edge id=":16_2" function="internal">
        <lane id=":16_2_0" index="0" speed="9.11" length="18.71" shape="398.40,207.96 399.24,203.77 401.78,200.79 406.00,199.00 411.91,198.40"/>
    </edge>
    <edge id=":16_3" function="internal">
        <lane id=":16_3_0" index="0" speed="3.65" length="2.34" shape="398.40,207.96 399.20,206.76 400.00,206.36"/>
    </edge>
    <edge id=":16_10" function="internal">
        <lane id=":16_10_0" index="0" speed="3.65" length="2.34" shape="400.00,206.36 400.80,206.76 401.60,207.96"/>
    </edge>
    <edge id=":16_4" function="internal">
        <lane id=":16_4_0" index="0" speed="7.07" length="10.87" shape="411.91,201.60 408.80,202.00 406.58,203.19 405.24,205.17 404.80,207.96"/>
    </edge>
    <edge id=":16_5" function="internal">
        <lane id=":16_5_0" index="0" speed="22.00" length="20.33" shape="411.91,201.60 407.97,201.65 403.52,201.41 398.32,200.34 392.17,197.87"/>
    </edge>
    <edge id=":16_6" function="internal">
        <lane id=":16_6_0" index="0" speed="3.65" length="1.44" shape="411.91,201.60 410.71,200.80"/>
    </edge>
    <edge id=":16_11" function="internal">
        <lane id=":16_11_0" index="0" speed="3.65" length="3.23" shape="410.71,200.80 410.31,200.00 410.71,199.20 411.91,198.40"/>
    </edge>
    <edge id=":16_7" function="internal">
        <lane id=":16_7_0" index="0" speed="22.00" length="18.16" shape="395.03,192.15 400.36,194.82 404.61,196.78 408.30,197.99 411.91,198.40"/>
    </edge>
    <edge id=":16_8" function="internal">
        <lane id=":16_8_0" index="0" speed="10.44" length="3.53" shape="393.60,195.01 396.55,196.96"/>
    </edge>
    <edge id=":16_9" function="internal">
        <lane id=":16_9_0" index="0" speed="3.65" length="1.44" shape="393.60,195.01 394.32,196.26"/>
    </edge>
    <edge id=":16_12" function="internal">
        <lane id=":16_12_0" index="0" speed="10.44" length="12.55" shape="396.55,196.96 397.10,197.32 399.60,200.25 401.10,203.79 401.60,207.96"/>
    </edge>
    <edge id=":16_13" function="internal">
        <lane id=":16_13_0" index="0" speed="3.65" length="3.23" shape="394.32,196.26 394.32,197.16 393.60,197.69 392.17,197.87"/>
    </edge>
    <edge id=":17_0" function="internal">
        <lane id=":17_0_0" index="0" speed="6.51" length="9.03" shape="498.40,207.20 498.05,204.75 497.00,203.00 495.25,201.95 492.80,201.60"/>
    </edge>
    <edge id=":17_1" function="internal">
        <lane id=":17_1_0" index="0" speed="8.00" length="14.19" shape="498.40,207.20 498.95,203.35 500.60,200.60 503.35,198.95 507.20,198.40"/>
    </edge>
    <edge id=":17_2" function="internal">
        <lane id=":17_2_0" index="0" speed="3.65" length="4.67" shape="498.40,207.20 499.20,206.00 500.00,205.60 500.80,206.00 501.60,207.20"/>
    </edge>
    <edge id=":17_3" function="internal">
        <lane id=":17_3_0" index="0" speed="6.51" length="9.03" shape="507.20,201.60 504.75,201.95 503.00,203.00 501.95,204.75 501.60,207.20"/>
    </edge>
    <edge id=":17_4" function="internal">
        <lane id=":17_4_0" index="0" speed="14.00" length="14.40" shape="507.20,201.60 492.80,201.60"/>
    </edge>
    <edge id=":17_5" function="internal">
        <lane id=":17_5_0" index="0" speed="3.65" length="1.44" shape="507.20,201.60 506.00,200.80"/>
    </edge>
    <edge id=":17_9" function="internal">
        <lane id=":17_9_0" index="0" speed="3.65" length="3.23" shape="506.00,200.80 505.60,200.00 506.00,199.20 507.20,198.40"/>
    </edge>
    <edge id=":17_6" function="internal">
        <lane id=":17_6_0" index="0" speed="14.00" length="14.40" shape="492.80,198.40 507.20,198.40"/>
    </edge>
    <edge id=":17_7" function="internal">
        <lane id=":17_7_0" index="0" speed="8.00" length="4.07" shape="492.80,198.40 496.65,198.95 496.80,199.04"/>
    </edge>
    <edge id=":17_8" function="internal">
        <lane id=":17_8_0" index="0" speed="3.65" length="1.44" shape="492.80,198.40 494.00,199.20"/>
    </edge>
    <edge id=":17_10" function="internal">
        <lane id=":17_10_0" index="0" speed="8.00" length="10.13" shape="496.80,199.04 499.40,200.60 501.05,203.35 501.60,207.20"/>
    </edge>
    <edge id=":17_11" function="internal">
        <lane id=":17_11_0" index="0" speed="3.65" length="3.23" shape="494.00,199.20 494.40,200.00 494.00,200.80 492.80,201.60"/>
    </edge>
    <edge id=":18_0" function="internal">
        <lane id=":18_0_0" index="0" speed="6.51" length="9.03" shape="595.20,207.20 594.85,204.75 593.80,203.00 592.05,201.95 589.60,201.60"/>
    </edge>
    <edge id=":18_1" function="internal">
        <lane id=":18_1_0" index="0" speed="13.49" length="16.90" shape="595.20,207.20 595.58,202.80 596.73,198.78 598.64,195.15 601.31,191.90"/>
        <lane id=":18_1_1" index="1" speed="12.58" length="14.66" shape="598.40,207.20 598.51,202.90 599.13,199.91 600.67,197.31 603.57,194.17"/>
    </edge>
    <edge id=":18_3" function="internal">
        <lane id=":18_3_0" index="0" speed="3.65" length="1.44" shape="598.40,207.20 599.20,206.00"/>
    </edge>
    <edge id=":18_11" function="internal">
        <lane id=":18_11_0" index="0" speed="3.65" length="3.23" shape="599.20,206.00 600.00,205.60 600.80,206.00 601.60,207.20"/>
    </edge>
    <edge id=":18_4" function="internal">
        <lane id=":18_4_0" index="0" speed="10.14" length="9.36" shape="608.10,198.69 606.65,200.46 605.62,202.47 605.01,204.71 604.80,207.20"/>
        <lane id=":18_4_1" index="1" speed="11.36" length="11.88" shape="605.83,196.43 603.98,198.69 602.66,201.24 601.86,204.08 601.60,207.20"/>
    </edge>
    <edge id=":18_6" function="internal">
        <lane id=":18_6_0" index="0" speed="13.70" length="3.84" shape="605.83,196.43 602.88,198.69 602.77,198.74"/>
    </edge>
    <edge id=":18_7" function="internal">
        <lane id=":18_7_0" index="0" speed="3.65" length="1.44" shape="605.83,196.43 604.42,196.71"/>
    </edge>
    <edge id=":18_12" function="internal">
        <lane id=":18_12_0" index="0" speed="13.70" length="13.61" shape="602.77,198.74 599.19,200.31 594.76,201.28 589.60,201.60"/>
    </edge>
    <edge id=":18_13" function="internal">
        <lane id=":18_13_0" index="0" speed="3.65" length="3.23" shape="604.42,196.71 603.57,196.43 603.29,195.58 603.57,194.17"/>
    </edge>
    <edge id=":18_8" function="internal">
        <lane id=":18_8_0" index="0" speed="12.18" length="13.70" shape="589.60,198.40 592.29,197.99 595.13,196.78 598.14,194.75 601.31,191.90"/>
    </edge>
    <edge id=":18_9" function="internal">
        <lane id=":18_9_0" index="0" speed="8.67" length="16.85" shape="589.60,198.40 594.85,198.95 598.60,200.60 600.85,203.35 601.60,207.20"/>
    </edge>
    <edge id=":18_10" function="internal">
        <lane id=":18_10_0" index="0" speed="3.65" length="1.44" shape="589.60,198.40 590.80,199.20"/>
    </edge>
    <edge id=":18_14" function="internal">
        <lane id=":18_14_0" index="0" speed="3.65" length="3.23" shape="590.80,199.20 591.20,200.00 590.80,200.80 589.60,201.60"/>
    </edge>
    <edge id=":19_0" function="internal">
        <lane id=":19_0_0" index="0" speed="3.65" length="4.67" shape="-0.72,1.43 -1.43,0.18 -1.43,-0.72 -0.72,-1.25 0.72,-1.43"/>
    </edge>
    <edge id=":2_0" function="internal">
        <lane id=":2_0_0" index="0" speed="3.65" length="4.67" shape="201.33,1100.89 200.00,1101.44 199.11,1101.33 198.67,1100.55 198.67,1099.11"/>
    </edge>
    <edge id=":20_0" function="internal">
        <lane id=":20_0_0" index="0" speed="3.65" length="4.67" shape="798.87,-1.13 800.28,-1.41 801.13,-1.13 801.41,-0.28 801.13,1.13"/>
    </edge>
    <edge id=":3_0" function="internal">
        <lane id=":3_0_0" index="0" speed="3.65" length="4.67" shape="1001.13,998.87 1001.41,1000.28 1001.13,1001.13 1000.28,1001.41 998.87,1001.13"/>
    </edge>
    <edge id=":4_0" function="internal">
        <lane id=":4_0_0" index="0" speed="3.65" length="4.67" shape="0.00,801.60 -1.20,800.80 -1.60,800.00 -1.20,799.20 0.00,798.40"/>
    </edge>
    <edge id=":5_0" function="internal">
        <lane id=":5_0_0" index="0" speed="12.41" length="19.61" shape="410.40,804.80 406.51,805.50 402.67,807.59 398.88,811.07 395.14,815.94"/>
    </edge>
    <edge id=":5_1" function="internal">
        <lane id=":5_1_0" index="0" speed="22.00" length="26.36" shape="410.40,804.80 384.04,804.80"/>
        <lane id=":5_1_1" index="1" speed="22.00" length="26.36" shape="410.40,801.60 384.04,801.60"/>
    </edge>
    <edge id=":5_3" function="internal">
        <lane id=":5_3_0" index="0" speed="9.26" length="5.01" shape="410.40,801.60 405.44,800.89"/>
    </edge>
    <edge id=":5_4" function="internal">
        <lane id=":5_4_0" index="0" speed="3.65" length="1.44" shape="410.40,801.60 409.20,800.80"/>
    </edge>
    <edge id=":5_20" function="internal">
        <lane id=":5_20_0" index="0" speed="9.26" length="14.34" shape="405.44,800.89 405.15,800.85 401.40,798.60 399.15,794.85 398.40,789.60"/>
    </edge>
    <edge id=":5_21" function="internal">
        <lane id=":5_21_0" index="0" speed="3.65" length="3.23" shape="409.20,800.80 408.80,800.00 409.20,799.20 410.40,798.40"/>
    </edge>
    <edge id=":5_5" function="internal">
        <lane id=":5_5_0" index="0" speed="6.51" length="9.03" shape="404.80,789.60 405.15,792.05 406.20,793.80 407.95,794.85 410.40,795.20"/>
    </edge>
    <edge id=":5_6" function="internal">
        <lane id=":5_6_0" index="0" speed="22.00" length="27.56" shape="404.80,789.60 404.07,796.76 402.05,803.40 398.99,809.72 395.14,815.94"/>
        <lane id=":5_6_1" index="1" speed="21.30" length="27.56" shape="401.60,789.60 400.95,796.49 399.12,802.51 396.24,808.22 392.48,814.17"/>
    </edge>
    <edge id=":5_8" function="internal">
        <lane id=":5_8_0" index="0" speed="10.26" length="5.25" shape="401.60,789.60 400.53,794.74"/>
    </edge>
    <edge id=":5_9" function="internal">
        <lane id=":5_9_0" index="0" speed="3.65" length="1.44" shape="401.60,789.60 400.80,790.80"/>
    </edge>
    <edge id=":5_22" function="internal">
        <lane id=":5_22_0" index="0" speed="10.26" length="18.75" shape="400.53,794.74 400.50,794.85 397.21,798.60 391.72,800.85 384.04,801.60"/>
    </edge>
    <edge id=":5_23" function="internal">
        <lane id=":5_23_0" index="0" speed="3.65" length="3.23" shape="400.80,790.80 400.00,791.20 399.20,790.80 398.40,789.60"/>
    </edge>
    <edge id=":5_10" function="internal">
        <lane id=":5_10_0" index="0" speed="7.90" length="13.81" shape="384.04,795.20 388.92,794.85 392.41,793.80 394.50,792.05 395.20,789.60"/>
    </edge>
    <edge id=":5_11" function="internal">
        <lane id=":5_11_0" index="0" speed="22.00" length="26.36" shape="384.04,795.20 410.40,795.20"/>
        <lane id=":5_11_1" index="1" speed="22.00" length="26.36" shape="384.04,798.40 410.40,798.40"/>
    </edge>
    <edge id=":5_13" function="internal">
        <lane id=":5_13_0" index="0" speed="8.81" length="5.53" shape="384.04,798.40 389.52,799.11"/>
    </edge>
    <edge id=":5_14" function="internal">
        <lane id=":5_14_0" index="0" speed="3.65" length="1.44" shape="384.04,798.40 385.24,799.20"/>
    </edge>
    <edge id=":5_24" function="internal">
        <lane id=":5_24_0" index="0" speed="8.81" length="19.74" shape="389.52,799.11 391.67,799.39 395.62,802.34 395.89,807.27 392.48,814.17"/>
    </edge>
    <edge id=":5_25" function="internal">
        <lane id=":5_25_0" index="0" speed="3.65" length="3.23" shape="385.24,799.20 385.64,800.00 385.24,800.80 384.04,801.60"/>
    </edge>
    <edge id=":5_15" function="internal">
        <lane id=":5_15_0" index="0" speed="5.61" length="9.32" shape="387.15,810.62 388.41,808.07 388.31,806.25 386.86,805.16 384.04,804.80"/>
    </edge>
    <edge id=":5_16" function="internal">
        <lane id=":5_16_0" index="0" speed="19.80" length="23.91" shape="387.15,810.62 390.75,805.23 393.26,800.74 394.72,795.93 395.20,789.60"/>
        <lane id=":5_16_1" index="1" speed="20.56" length="23.91" shape="389.82,812.39 393.50,806.73 396.19,801.63 397.84,796.21 398.40,789.60"/>
    </edge>
    <edge id=":5_18" function="internal">
        <lane id=":5_18_0" index="0" speed="14.21" length="7.07" shape="389.82,812.39 394.17,806.82"/>
    </edge>
    <edge id=":5_19" function="internal">
        <lane id=":5_19_0" index="0" speed="3.65" length="1.44" shape="389.82,812.39 391.15,811.84"/>
    </edge>
    <edge id=":5_26" function="internal">
        <lane id=":5_26_0" index="0" speed="14.21" length="18.82" shape="394.17,806.82 394.60,806.27 399.63,801.90 404.89,799.27 410.40,798.40"/>
    </edge>
    <edge id=":5_27" function="internal">
        <lane id=":5_27_0" index="0" speed="3.65" length="3.23" shape="391.15,811.84 392.04,811.95 392.48,812.72 392.48,814.17"/>
    </edge>
    <edge id=":6_0" function="internal">