
    <routes xmlns:xsi="http://www.w3.org/2001/XMLSchema-instance" xsi:noNamespaceSchemaLocation="http://sumo.dlr.de/xsd/routes_file.xsd">
        <vType id="normal_car" vClass="passenger" maxSpeed="40" speedFactor="0.9" speedDev="0.2" sigma="0.5" color="white" guiShape="passenger" />
        <vType id="sporty_car" vClass="passenger" maxSpeed="60" speedFactor="1.3" speedDev="0.1" sigma="0.1" color="red" guiShape="passenger/sedan" />
        <vType id="trailer" vClass="trailer" maxSpeed="30" speedFactor="1" speedDev="0.05" color="gray" guiShape="truck/trailer" />
        <vType id="coach" vClass="coach" maxSpeed="30" speedFactor="1" speedDev="0.05" color="green" guiShape="bus/coach" />
        <vehicle id="2" depart="2.00" type="normal_car">
        <route edges="e1 e13 e22 e24 e20 e16 e9" />
    </vehicle>
    <vehicle id="3" depart="3.00" type="normal_car">
        <route edges="e21 e33 e26 e28 e42 e20 e16" />
    </vehicle>
    <vehicle id="5" depart="5.00" type="normal_car">
        <route edges="e9 e4" />
    </vehicle>
    <vehicle id="8" depart="8.00" type="normal_car">
        <route edges="e24 e20 e16 e9 e8" />
    </vehicle>
    <vehicle id="10" depart="10.00" type="normal_car">
        <route edges="e20 e16 e6" />
    </vehicle>
    <vehicle id="12" depart="12.00" type="normal_car">
        <route edges="e11 e13 e33 e26 e38 e21" />
    </vehicle>
    <vehicle id="13" depart="13.00" type="sporty_car">
        <route edges="e10 e15 e19 e23 e21 e14 e12 e4" />
    </vehicle>
    <vehicle id="14" depart="14.00" type="normal_car">
        <route edges="e12 e10 e15" />
    </vehicle>
    <vehicle id="16" depart="16.00" type="normal_car">
        <route edges="e3 e10 e15 e18" />
    </vehicle>
    <vehicle id="17" depart="17.00" type="sporty_car">
        <route edges="e3 e10" />
    </vehicle>
    <vehicle id="18" depart="18.00" type="normal_car">
        <route edges="e10 e15 e19 e23 e21 e14 e12 e4" />
    </vehicle>
    <vehicle id="19" depart="19.00" type="normal_car">
        <route edges="e16 e9 e11 e13 e22 e37 e25 e34 e14 e12 e10" />
    </vehicle>
    <vehicle id="20" depart="20.00" type="normal_car">
        <route edges="e24 e41 e27 e25 e34 e14 e12" />
    </vehicle>
    <vehicle id="21" depart="21.00" type="normal_car">
        <route edges="e19 e23 e21 e14 e12 e4" />
    </vehicle>
    <vehicle id="22" depart="22.00" type="normal_car">
        <route edges="e9 e8" />
    </vehicle>
    <vehicle id="23" depart="23.00" type="normal_car">
        <route edges="e11 e13 e22 e37 e25 e34 e14 e12 e10 e15 e19" />
    </vehicle>
    <vehicle id="24" depart="24.00" type="normal_car">
        <route edges="e9 e11 e13 e22 e24" />
    </vehicle>
    <vehicle id="25" depart="25.00" type="coach">
        <route edges="e14 e12 e10 e15 e19 e41 e27 e38 e24 e20 e16 e9 e11" />
    </vehicle>
    <vehicle id="26" depart="26.00" type="normal_car">
        <route edges="e21 e33 e26 e28 e42 e20 e16 e9 e11" />
    </vehicle>
    <vehicle id="27" depart="27.00" type="normal_car">
        <route edges="e14 e12 e4" />
    </vehicle>
    <vehicle id="28" depart="28.00" type="normal_car">
        <route edges="e3 e8" />
    </vehicle>
    <vehicle id="29" depart="29.00" type="normal_car">
        <route edges="e16 e9 e11 e13 e33 e26 e38 e21" />
    </vehicle>
    <vehicle id="31" depart="31.00" type="normal_car">
        <route edges="e5 e9 e11 e13 e22 e24 e20" />
    </vehicle>
    <vehicle id="33" depart="33.00" type="normal_car">
        <route edges="e24 e41 e27 e25 e34 e22" />
    </vehicle>
    <vehicle id="35" depart="35.00" type="sporty_car">
        <route edges="e21 e33 e26 e28 e42 e20 e18" />
    </vehicle>
    <vehicle id="36" depart="36.00" type="normal_car">
        <route edges="e13 e22 e37 e25 e34 e14 e12 e10 e15" />
    </vehicle>
    <vehicle id="39" depart="39.00" type="normal_car">
        <route edges="e9 e11 e13 e22 e24 e20 e16 e6" />
    </vehicle>
    <vehicle id="40" depart="40.00" type="normal_car">
        <route edges="e19 e41 e27 e38 e24 e20 e18" />
    </vehicle>
    <vehicle id="42" depart="42.00" type="normal_car">
        <route edges="e13" />
    </vehicle>
    <vehicle id="43" depart="43.00" type="normal_car">
        <route edges="e12 e4" />
    </vehicle>
    <vehicle id="45" depart="45.00" type="coach">
        <route edges="e7" />
    </vehicle>
    <vehicle id="47" depart="47.00" type="normal_car">
        <route edges="e7 e11 e2" />
    </vehicle>
    <vehicle id="48" depart="48.00" type="normal_car">
        <route edges="e15 e19 e41 e27 e38 e24 e20 e16" />
    </vehicle>
    <vehicle id="49" depart="49.00" type="normal_car">
        <route edges="e7 e11 e13 e22" />
    </vehicle>
    <vehicle id="50" depart="50.00" type="normal_car">
        <route edges="e19 e23" />
    </vehicle>
    <vehicle id="52" depart="52.00" type="normal_car">
        <route edges="e23 e21 e14 e12 e10 e15" />
    </vehicle>
    <vehicle id="53" depart="53.00" type="normal_car">
        <route edges="e1 e13" />
    </vehicle>
    <vehicle id="56" depart="56.00" type="normal_car">
        <route edges="e12 e10 e15 e19 e41 e27 e38 e24 e20 e16 e9" />
    </vehicle>
    <vehicle id="57" depart="57.00" type="sporty_car">
        <route edges="e14 e12 e10 e15 e19 e41 e27 e25 e34 e22" />
    </vehicle>
    <vehicle id="59" depart="59.00" type="sporty_car">
        <route edges="e20 e18" />
    </vehicle>
    <vehicle id="63" depart="63.00" type="normal_car">
        <route edges="e10 e15 e19 e23" />
    </vehicle>
    <vehicle id="67" depart="67.00" type="sporty_car">
        <route edges="e12 e10 e15 e19 e41 e27 e38 e24 e20 e16 e9 e11" />
    </vehicle>
    <vehicle id="68" depart="68.00" type="normal_car">
        <route edges="e7 e10 e6" />
    </vehicle>
    <vehicle id="69" depart="69.00" type="trailer">
        <route edges="e10 e15 e19 e41 e27 e25 e34 e22" />
    </vehicle>
    <vehicle id="70" depart="70.00" type="normal_car">
        <route edges="e14 e12 e10" />
    </vehicle>
    <vehicle id="71" depart="71.00" type="normal_car">
        <route edges="e23 e21 e14 e12 e10" />
    </vehicle>
    <vehicle id="72" depart="72.00" type="normal_car">
        <route edges="e5" />
    </vehicle>
    <vehicle id="73" depart="73.00" type="normal_car">
        <route edges="e9 e11 e13" />
    </vehicle>
    <vehicle id="74" depart="74.00" type="normal_car">
        <route edges="e16 e9 e11 e13 e22 e37 e25 e34 e14" />
    </vehicle>
    <vehicle id="75" depart="75.00" type="normal_car">
        <route edges="e5 e15" />
    </vehicle>
    <vehicle id="76" depart="76.00" type="normal_car">
        <route edges="e16 e9 e11" />
    </vehicle>
    <vehicle id="77" depart="77.00" type="coach">
        <route edges="e3 e11 e13 e22 e24 e20 e16" />
    </vehicle>
    <vehicle id="78" depart="78.00" type="normal_car">
        <route edges="e10 e15 e19 e41 e27 e38 e24" />
    </vehicle>
    <vehicle id="79" depart="79.00" type="normal_car">
        <route edges="e7 e10 e15 e19 e23 e21 e14 e12 e8" />
    </vehicle>
    <vehicle id="80" depart="80.00" type="normal_car">
        <route edges="e1 e13 e22 e37 e25 e34 e14" />
    </vehicle>
    <vehicle id="82" depart="82.00" type="normal_car">
        <route edges="e21 e33 e26 e28 e42 e20 e16 e9 e11" />
    </vehicle>
    <vehicle id="84" depart="84.00" type="normal_car">
        <route edges="e1 e13 e22 e24" />
    </vehicle>
    <vehicle id="85" depart="85.00" type="normal_car">
        <route edges="e17 e19" />
    </vehicle>
    <vehicle id="86" depart="86.00" type="normal_car">
        <route edges="e23 e37 e28 e42 e20 e16" />
    </vehicle>
    <vehicle id="87" depart="87.00" type="normal_car">
        <route edges="e22 e24 e20 e16 e6" />
    </vehicle>
    <vehicle id="90" depart="90.00" type="normal_car">
        <route edges="e14 e12 e10 e15 e19 e41 e27 e38 e24 e20 e16 e9" />
    </vehicle>
    <vehicle id="92" depart="92.00" type="normal_car">
        <route edges="e12 e10 e15 e19 e23" />
    </vehicle>
    <vehicle id="94" depart="94.00" type="normal_car">
        <route edges="e5 e9 e11 e13" />
    </vehicle>
    <vehicle id="95" depart="95.00" type="normal_car">
        <route edges="e15 e19 e41 e27 e38 e24 e20 e16 e9 e11" />
    </vehicle>
    <vehicle id="97" depart="97.00" type="normal_car">
        <route edges="e1 e13 e33 e26 e28 e42 e23" />
    </vehicle>
    <vehicle id="98" depart="98.00" type="normal_car">
        <route edges="e23 e37 e28 e42 e20 e18" />
    </vehicle>
    <vehicle id="100" depart="100.00" type="normal_car">
        <route edges="e24 e20 e18" />
    </vehicle>
    <vehicle id="101" depart="101.00" type="normal_car">
        <route edges="e23 e21 e14 e12 e8" />
    </vehicle>
    <vehicle id="104" depart="104.00" type="normal_car">
        <route edges="e7 e10 e15 e18" />
    </vehicle>
    <vehicle id="105" depart="105.00" type="normal_car">
        <route edges="e9 e11 e13 e22 e24 e20" />
    </vehicle>
    <vehicle id="106" depart="106.00" type="normal_car">
        <route edges="e1 e13 e22 e24" />
    </vehicle>
    <vehicle id="107" depart="107.00" type="normal_car">
        <route edges="e7 e10 e15" />
    </vehicle>
    <vehicle id="108" depart="108.00" type="normal_car">
        <route edges="e1 e13 e22 e24 e20 e16 e9" />
    </vehicle>
    <vehicle id="110" depart="110.00" type="normal_car">
        <route edges="e24 e20 e18" />
    </vehicle>
    <vehicle id="111" depart="111.00" type="normal_car">
        <route edges="e9 e11 e13 e33 e26 e38 e21" />
    </vehicle>
    <vehicle id="113" depart="113.00" type="normal_car">
        <route edges="e20 e16 e6" />
    </vehicle>
    <vehicle id="115" depart="115.00" type="normal_car">
        <route edges="e1 e12" />
    </vehicle>
    <vehicle id="116" depart="116.00" type="normal_car">
        <route edges="e9 e11 e13 e22 e37 e25 e34 e14 e12 e10 e15" />
    </vehicle>
    <vehicle id="117" depart="117.00" type="normal_car">
        <route edges="e9" />
    </vehicle>
    <vehicle id="118" depart="118.00" type="normal_car">
        <route edges="e7 e11 e13 e22 e24 e20 e16" />
    </vehicle>
    <vehicle id="120" depart="120.00" type="normal_car">
        <route edges="e20 e16 e9 e11 e13 e22 e37 e25 e34 e14 e12" />
    </vehicle>
    <vehicle id="123" depart="123.00" type="normal_car">
        <route edges="e22 e24 e20 e16 e6" />
    </vehicle>
    <vehicle id="124" depart="124.00" type="normal_car">
        <route edges="e48 e44 e42 e20 e16 e9" />
    </vehicle>
    <vehicle id="125" depart="125.00" type="normal_car">
        <route edges="e3 e11" />
    </vehicle>
    <vehicle id="126" depart="126.00" type="normal_car">
        <route edges="e1 e12 e10 e15" />
    </vehicle>
    <vehicle id="127" depart="127.00" type="normal_car">
        <route edges="e24 e41 e27 e25 e34 e22" />
    </vehicle>
    <vehicle id="128" depart="128.00" type="normal_car">
        <route edges="e15 e19 e41 e27 e38 e24 e20 e16 e9 e11" />
    </vehicle>
    <vehicle id="129" depart="129.00" type="normal_car">
        <route edges="e17 e16 e6" />
    </vehicle>
    <vehicle id="130" depart="130.00" type="normal_car">
        <route edges="e11 e13 e22 e24" />
    </vehicle>
    <vehicle id="131" depart="131.00" type="normal_car">
        <route edges="e1 e12 e4" />
    </vehicle>
    <vehicle id="132" depart="132.00" type="normal_car">
        <route edges="e17 e19 e23 e21" />
    </vehicle>
    <vehicle id="133" depart="133.00" type="normal_car">
        <route edges="e3 e11 e13" />
    </vehicle>
    <vehicle id="134" depart="134.00" type="normal_car">
        <route edges="e7 e10 e15 e19" />
    </vehicle>
    <vehicle id="135" depart="135.00" type="normal_car">
        <route edges="e17 e16 e9" />
    </vehicle>
    <vehicle id="137" depart="137.00" type="normal_car">
        <route edges="e12 e10 e15 e19 e41 e27 e38 e24 e20 e16" />
    </vehicle>
    <vehicle id="141" depart="141.00" type="normal_car">
        <route edges="e12 e10" />
    </vehicle>
    <vehicle id="145" depart="145.00" type="normal_car">
        <route edges="e15 e18" />
    </vehicle>
    <vehicle id="146" depart="146.00" type="normal_car">
        <route edges="e13 e22 e24 e20 e16 e9" />
    </vehicle>
    <vehicle id="147" depart="147.00" type="sporty_car">
        <route edges="e14 e2" />
    </vehicle>
    <vehicle id="151" depart="151.00" type="normal_car">
        <route edges="e14 e12 e10 e15" />
    </vehicle>
    <vehicle id="152" depart="152.00" type="normal_car">
        <route edges="e12 e10 e15 e19 e41 e27 e38 e24 e20" />
    </vehicle>
    <vehicle id="154" depart="154.00" type="normal_car">
        <route edges="e17 e19 e23 e21 e14 e12" />
    </vehicle>
    <vehicle id="155" depart="155.00" type="normal_car">
        <route edges="e23 e37 e28 e42 e20 e16 e9 e11" />
    </vehicle>
    <vehicle id="156" depart="156.00" type="normal_car">
        <route edges="e10 e15 e19 e23 e21" />
    </vehicle>
    <vehicle id="157" depart="157.00" type="normal_car">
        <route edges="e21 e14" />
    </vehicle>
    <vehicle id="158" depart="158.00" type="normal_car">
        <route edges="e23 e37 e28 e42 e20 e18" />
    </vehicle>
    <vehicle id="161" depart="161.00" type="normal_car">
        <route edges="e1 e13 e22 e24" />
    </vehicle>
    <vehicle id="162" depart="162.00" type="sporty_car">
        <route edges="e3 e10 e15" />
    </vehicle>
    <vehicle id="163" depart="163.00" type="sporty_car">
        <route edges="e1 e12 e4" />
    </vehicle>
    <vehicle id="164" depart="164.00" type="normal_car">
        <route edges="e9 e11 e13 e22 e37 e25 e34 e14 e12" />
    </vehicle>
    <vehicle id="165" depart="165.00" type="normal_car">
        <route edges="e22 e37 e25 e34 e14 e12 e4" />
    </vehicle>
    <vehicle id="168" depart="168.00" type="normal_car">
        <route edges="e15 e19 e41 e27 e38 e24 e20 e16 e9 e11 e13" />
    </vehicle>
    <vehicle id="169" depart="169.00" type="normal_car">
        <route edges="e7 e11 e2" />
    </vehicle>
    <vehicle id="173" depart="173.00" type="normal_car">
        <route edges="e13 e33 e26 e38 e21" />
    </vehicle>
    <vehicle id="176" depart="176.00" type="normal_car">
        <route edges="e9 e11" />
    </vehicle>
    <vehicle id="177" depart="177.00" type="normal_car">
        <route edges="e21 e33 e26 e28 e42 e20 e16 e9 e11" />
    </vehicle>
    <vehicle id="179" depart="179.00" type="normal_car">
        <route edges="e20 e16 e9 e11 e13 e33 e26 e38 e21" />
    </vehicle>
    <vehicle id="181" depart="181.00" type="normal_car">
        <route edges="e17 e16 e9 e4" />
    </vehicle>
    <vehicle id="183" depart="183.00" type="normal_car">
        <route edges="e10 e15 e19 e23 e21 e14 e12" />
    </vehicle>
    <vehicle id="184" depart="184.00" type="normal_car">
        <route edges="e16 e6" />
    </vehicle>
    <vehicle id="185" depart="185.00" type="normal_car">
        <route edges="e1 e13 e22 e24" />
    </vehicle>
    <vehicle id="186" depart="186.00" type="normal_car">
        <route edges="e11 e13 e22 e37 e25 e34 e14 e12 e4" />
    </vehicle>
    <vehicle id="187" depart="187.00" type="normal_car">
        <route edges="e1 e12 e4" />
    </vehicle>
    <vehicle id="188" depart="188.00" type="normal_car">
        <route edges="e10 e15 e19 e23 e21 e14 e12 e8" />
    </vehicle>
    <vehicle id="189" depart="189.00" type="normal_car">
        <route edges="e13 e22 e37 e25 e34 e14 e2" />
    </vehicle>
    <vehicle id="190" depart="190.00" type="normal_car">
        <route edges="e10 e15 e18" />
    </vehicle>
    <vehicle id="192" depart="192.00" type="normal_car">
        <route edges="e13" />
    </vehicle>
    <vehicle id="193" depart="193.00" type="normal_car">
        <route edges="e10 e15 e19 e23 e21 e14 e12" />
    </vehicle>
    <vehicle id="194" depart="194.00" type="normal_car">
        <route edges="e5 e9 e11 e13" />
    </vehicle>
    <vehicle id="195" depart="195.00" type="sporty_car">
        <route edges="e13 e22 e37 e25 e34 e14" />
    </vehicle>
    <vehicle id="197" depart="197.00" type="normal_car">
        <route edges="e19 e23 e21 e14 e12" />
    </vehicle>
    <vehicle id="198" depart="198.00" type="normal_car">
        <route edges="e22 e37 e25 e34 e14 e12 e4" />
    </vehicle>
    <vehicle id="199" depart="199.00" type="normal_car">
        <route edges="e12 e10 e15 e19 e41 e27 e38 e24 e20 e16" />
    </vehicle>
    <vehicle id="201" depart="201.00" type="normal_car">
        <route edges="e13 e22 e37 e25 e34 e14 e12 e10 e15 e19" />
    </vehicle>
    <vehicle id="202" depart="202.00" type="normal_car">
        <route edges="e10 e15" />
    </vehicle>
    <vehicle id="204" depart="204.00" type="normal_car">
        <route edges="e16 e9 e11 e13" />
    </vehicle>
    <vehicle id="205" depart="205.00" type="normal_car">
        <route edges="e17 e19 e23 e21 e14 e2" />
    </vehicle>
    <vehicle id="208" depart="208.00" type="normal_car">
        <route edges="e1 e12 e4" />
    </vehicle>
    <vehicle id="209" depart="209.00" type="normal_car">
        <route edges="e14 e12 e10 e15 e19 e41 e27 e38 e24 e20 e16 e9" />
    </vehicle>
    <vehicle id="210" depart="210.00" type="sporty_car">
        <route edges="e17 e19 e41 e27 e25 e34 e22" />
    </vehicle>
    <vehicle id="212" depart="212.00" type="normal_car">
        <route edges="e3 e10 e15 e18" />
    </vehicle>
    <vehicle id="213" depart="213.00" type="sporty_car">
        <route edges="e12 e4" />
    </vehicle>
    <vehicle id="215" depart="215.00" type="normal_car">
        <route edges="e48 e44 e42 e20 e16 e9" />
    </vehicle>
    <vehicle id="216" depart="216.00" type="normal_car">
        <route edges="e12" />
    </vehicle>
    <vehicle id="219" depart="219.00" type="normal_car">
        <route edges="e1 e13 e22 e24 e20 e16" />
    </vehicle>
    <vehicle id="220" depart="220.00" type="normal_car">
        <route edges="e7 e10 e15 e19 e23 e21 e14 e12" />
    </vehicle>
    <vehicle id="222" depart="222.00" type="normal_car">
        <route edges="e19 e41 e27 e38 e24 e20 e18" />
    </vehicle>
    <vehicle id="223" depart="223.00" type="normal_car">
        <route edges="e7 e11 e13 e22 e24" />
    </vehicle>
    <vehicle id="226" depart="226.00" type="normal_car">
        <route edges="e14 e12 e10 e6" />
    </vehicle>
    <vehicle id="227" depart="227.00" type="normal_car">
        <route edges="e16 e9 e8" />
    </vehicle>
    <vehicle id="228" depart="228.00" type="normal_car">
        <route edges="e1 e13 e22 e37 e25 e34 e14 e2" />
    </vehicle>
    <vehicle id="229" depart="229.00" type="normal_car">
        <route edges="e7 e10 e15 e19 e23 e21 e14 e12" />
    </vehicle>
    <vehicle id="236" depart="236.00" type="normal_car">
        <route edges="e21 e33 e26 e28 e42 e23" />
    </vehicle>
    <vehicle id="238" depart="238.00" type="normal_car">
        <route edges="e1 e13 e22 e24" />
    </vehicle>
    <vehicle id="239" depart="239.00" type="normal_car">
        <route edges="e3 e10 e15 e18" />
    </vehicle>
    <vehicle id="240" depart="240.00" type="normal_car">
        <route edges="e12 e10 e15 e19 e41 e27 e38 e24 e20" />
    </vehicle>
    <vehicle id="241" depart="241.00" type="normal_car">
        <route edges="e16 e9 e11 e13 e22 e37 e25 e34 e14 e12 e10" />
    </vehicle>
    <vehicle id="242" depart="242.00" type="normal_car">
        <route edges="e12 e10 e15 e19 e23 e21" />
    </vehicle>
    <vehicle id="246" depart="246.00" type="sporty_car">
        <route edges="e10 e15 e19 e41 e27 e38 e24" />
    </vehicle>
    <vehicle id="247" depart="247.00" type="normal_car">
        <route edges="e13 e22" />
    </vehicle>
    <vehicle id="248" depart="248.00" type="sporty_car">
        <route edges="e5 e15 e19 e23 e21 e14 e12" />
    </vehicle>
    <vehicle id="251" depart="251.00" type="sporty_car">
        <route edges="e6" />
    </vehicle>
    <vehicle id="252" depart="252.00" type="normal_car">
        <route edges="e13 e22 e24 e20 e16 e9" />
    </vehicle>
    <vehicle id="253" depart="253.00" type="normal_car">
        <route edges="e3 e11 e13 e22" />
    </vehicle>
    <vehicle id="260" depart="260.00" type="normal_car">
        <route edges="e9 e11 e13 e22 e37 e25 e34 e14 e12 e10 e15" />
    </vehicle>
    <vehicle id="261" depart="261.00" type="coach">
        <route edges="e22 e37 e25 e34 e14 e12 e4" />
    </vehicle>
    <vehicle id="262" depart="262.00" type="normal_car">
        <route edges="e14 e12 e10 e15 e19 e41 e27 e38 e24 e20 e16 e9" />
    </vehicle>
    <vehicle id="264" depart="264.00" type="normal_car">
        <route edges="e13 e22 e24 e20" />
    </vehicle>
    <vehicle id="265" depart="265.00" type="normal_car">
        <route edges="e1 e13 e22 e24 e20 e16 e9" />
    </vehicle>
    <vehicle id="266" depart="266.00" type="normal_car">
        <route edges="e20 e16 e9 e11 e13 e33 e26 e38 e21" />
    </vehicle>
    <vehicle id="267" depart="267.00" type="normal_car">
        <route edges="e9 e11 e13 e22 e24 e20 e18" />
    </vehicle>
    <vehicle id="269" depart="269.00" type="normal_car">
        <route edges="e10 e15 e19 e23 e21 e14 e2" />
    </vehicle>
    <vehicle id="271" depart="271.00" type="coach">
        <route edges="e13 e22 e37 e25 e34 e14 e12 e10 e15 e19" />
    </vehicle>
    <vehicle id="273" depart="273.00" type="normal_car">
        <route edges="e23 e21 e14 e12" />
    </vehicle>
    <vehicle id="275" depart="275.00" type="normal_car">
        <route edges="e17 e19 e23 e21 e14 e12 e10" />
    </vehicle>
    <vehicle id="276" depart="276.00" type="sporty_car">
        <route edges="e22 e37 e25 e34 e14 e12" />
    </vehicle>
    <vehicle id="278" depart="278.00" type="normal_car">
        <route edges="e1 e12 e4" />
    </vehicle>
    <vehicle id="280" depart="280.00" type="sporty_car">
        <route edges="e22 e37 e25 e34 e14 e2" />
    </vehicle>
    <vehicle id="281" depart="281.00" type="trailer">
        <route edges="e19 e23 e21 e14 e12 e10" />
    </vehicle>
    <vehicle id="284" depart="284.00" type="normal_car">
        <route edges="e3 e10 e15 e19 e23" />
    </vehicle>
    <vehicle id="285" depart="285.00" type="coach">
        <route edges="e5 e9 e8" />
    </vehicle>
    <vehicle id="286" depart="286.00" type="normal_car">
        <route edges="e17 e16 e9" />
    </vehicle>
    <vehicle id="287" depart="287.00" type="normal_car">
        <route edges="e1 e12 e4" />
    </vehicle>
    <vehicle id="288" depart="288.00" type="normal_car">
        <route edges="e24 e41 e27 e25 e34 e14" />
    </vehicle>
    <vehicle id="290" depart="290.00" type="normal_car">
        <route edges="e5 e9 e11 e13 e22" />
    </vehicle>
    <vehicle id="293" depart="293.00" type="normal_car">
        <route edges="e1 e12 e4" />
    </vehicle>
    <vehicle id="294" depart="294.00" type="normal_car">
        <route edges="e11 e13 e22" />
    </vehicle>
    <vehicle id="295" depart="295.00" type="normal_car">
        <route edges="e13 e22 e37 e25 e34 e14 e12 e10 e15" />
    </vehicle>
    <vehicle id="296" depart="296.00" type="normal_car">
        <route edges="e21 e33 e26 e28 e42 e20 e16 e9" />
    </vehicle>
    <vehicle id="297" depart="297.00" type="normal_car">
        <route edges="e7 e4" />
    </vehicle>
    <vehicle id="298" depart="298.00" type="sporty_car">
        <route edges="e22 e37 e25 e34 e14" />
    </vehicle>
    <vehicle id="300" depart="300.00" type="normal_car">
        <route edges="e3 e11 e13 e22 e37 e25 e34 e14 e12 e4" />
    </vehicle>
    <vehicle id="301" depart="301.00" type="normal_car">
        <route edges="e13 e22 e24 e20 e18" />
    </vehicle>
    <vehicle id="302" depart="302.00" type="normal_car">
        <route edges="e3 e11" />
    </vehicle>
    <vehicle id="304" depart="304.00" type="coach">
        <route edges="e23 e21 e14 e12 e4" />
    </vehicle>
    <vehicle id="306" depart="306.00" type="normal_car">
        <route edges="e23 e21" />
    </vehicle>
    <vehicle id="307" depart="307.00" type="normal_car">
        <route edges="e10 e15 e19 e41 e27 e38 e24 e20 e16 e9 e11 e13" />
    </vehicle>
    <vehicle id="308" depart="308.00" type="normal_car">
        <route edges="e21 e14 e12 e10 e15 e19" />
    </vehicle>
    <vehicle id="309" depart="309.00" type="normal_car">
        <route edges="e15 e19 e23 e21 e14" />
    </vehicle>
    <vehicle id="310" depart="310.00" type="normal_car">
        <route edges="e11 e13 e22 e24 e20" />
    </vehicle>
    <vehicle id="311" depart="311.00" type="normal_car">
        <route edges="e16 e9 e11 e13 e22 e37 e25 e34 e14 e12 e10 e15 e19" />
    </vehicle>
    <vehicle id="313" depart="313.00" type="normal_car">
        <route edges="e22 e37 e25 e34 e14 e2" />
    </vehicle>
    <vehicle id="314" depart="314.00" type="normal_car">
        <route edges="e22 e24 e41 e27 e38 e21" />
    </vehicle>
    <vehicle id="316" depart="316.00" type="normal_car">
        <route edges="e15 e19 e41 e27 e38 e24 e20 e16 e9" />
    </vehicle>
    <vehicle id="317" depart="317.00" type="normal_car">
        <route edges="e24 e20 e16 e9 e4" />
    </vehicle>
    <vehicle id="318" depart="318.00" type="normal_car">
        <route edges="e1 e12 e4" />
    </vehicle>
    <vehicle id="320" depart="320.00" type="sporty_car">
        <route edges="e7 e11 e13 e22" />
    </vehicle>
    <vehicle id="321" depart="321.00" type="normal_car">
        <route edges="e13" />
    </vehicle>
    <vehicle id="326" depart="326.00" type="normal_car">
        <route edges="e13 e22 e24 e20 e16 e9" />
    </vehicle>
    <vehicle id="327" depart="327.00" type="normal_car">
        <route edges="e1 e13 e22 e24 e20 e16" />
    </vehicle>
    <vehicle id="328" depart="328.00" type="sporty_car">
        <route edges="e48 e44 e42 e20 e16 e9" />
    </vehicle>
    <vehicle id="329" depart="329.00" type="sporty_car">
        <route edges="e7 e11 e13 e22 e24 e20 e16" />
    </vehicle>
    <vehicle id="330" depart="330.00" type="coach">
        <route edges="e21 e14 e12 e10 e6" />
    </vehicle>
    <vehicle id="331" depart="331.00" type="sporty_car">
        <route edges="e1 e13 e22 e24 e20 e16 e9" />
    </vehicle>
    <vehicle id="332" depart="332.00" type="normal_car">
        <route edges="e3 e8" />
    </vehicle>
    <vehicle id="333" depart="333.00" type="normal_car">
        <route edges="e17" />
    </vehicle>
    <vehicle id="334" depart="334.00" type="normal_car">
        <route edges="e3 e10 e15 e19" />
    </vehicle>
    <vehicle id="336" depart="336.00" type="sporty_car">
        <route edges="e14 e12 e10 e15 e19 e41 e27 e38 e24 e20 e16 e9 e11 e13" />
    </vehicle>
    <vehicle id="339" depart="339.00" type="normal_car">
        <route edges="e16 e9 e11 e13 e22 e24 e20 e18" />
    </vehicle>
    <vehicle id="340" depart="340.00" type="normal_car">
        <route edges="e3 e10 e15 e19 e23 e21" />
    </vehicle>
    <vehicle id="341" depart="341.00" type="sporty_car">
        <route edges="e19 e41 e27 e38 e24 e20 e16 e9 e11" />
    </vehicle>
    <vehicle id="342" depart="342.00" type="normal_car">
        <route edges="e19 e41 e27 e38 e24 e20 e16 e9 e11 e13" />
    </vehicle>
    <vehicle id="345" depart="345.00" type="normal_car">
        <route edges="e6" />
    </vehicle>
    <vehicle id="346" depart="346.00" type="normal_car">
        <route edges="e15 e19 e23 e21 e14" />
    </vehicle>
    <vehicle id="347" depart="347.00" type="normal_car">
        <route edges="e20" />
    </vehicle>
    <vehicle id="350" depart="350.00" type="sporty_car">
        <route edges="e21 e14" />
    </vehicle>
    <vehicle id="351" depart="351.00" type="normal_car">
        <route edges="e12 e10 e15 e19 e23" />
    </vehicle>
    <vehicle id="352" depart="352.00" type="normal_car">
        <route edges="e20 e16 e9 e11 e13 e22 e37 e25 e34 e14 e12 e10 e15 e19" />
    </vehicle>
    <vehicle id="354" depart="354.00" type="normal_car">
        <route edges="e1 e12 e10 e6" />
    </vehicle>
    <vehicle id="355" depart="355.00" type="sporty_car">
        <route edges="e17 e16" />
    </vehicle>
    <vehicle id="358" depart="358.00" type="coach">
        <route edges="e7 e11 e13 e22" />
    </vehicle>
    <vehicle id="359" depart="359.00" type="normal_car">
        <route edges="e22" />
    </vehicle>
    <vehicle id="360" depart="360.00" type="normal_car">
        <route edges="e14 e2" />
    </vehicle>
    <vehicle id="361" depart="361.00" type="sporty_car">
        <route edges="e1 e13 e33 e26 e38 e21" />
    </vehicle>
    <vehicle id="365" depart="365.00" type="normal_car">
        <route edges="e1 e13 e22 e24" />
    </vehicle>
    <vehicle id="367" depart="367.00" type="normal_car">
        <route edges="e3 e10" />
    </vehicle>
    <vehicle id="369" depart="369.00" type="normal_car">
        <route edges="e11 e13 e22" />
    </vehicle>
    <vehicle id="370" depart="370.00" type="coach">
        <route edges="e24 e41 e27 e25 e34 e14 e12 e10 e15 e19" />
    </vehicle>
    <vehicle id="372" depart="372.00" type="sporty_car">
        <route edges="e21 e14 e2" />
    </vehicle>
    <vehicle id="373" depart="373.00" type="normal_car">
        <route edges="e1 e13 e33 e26 e28 e42 e23" />
    </vehicle>
    <vehicle id="374" depart="374.00" type="normal_car">
        <route edges="e10 e15 e19 e41 e27 e38 e24 e20 e16 e9 e11 e13" />
    </vehicle>
    <vehicle id="376" depart="376.00" type="normal_car">
        <route edges="e22 e24 e20 e16 e6" />
    </vehicle>
    <vehicle id="377" depart="377.00" type="normal_car">
        <route edges="e16 e9 e11 e13 e22 e24" />
    </vehicle>
    <vehicle id="380" depart="380.00" type="normal_car">
        <route edges="e10 e15 e19 e41 e27 e38 e24 e20" />
    </vehicle>
    <vehicle id="383" depart="383.00" type="normal_car">
        <route edges="e22 e37 e25 e34 e14 e12 e10 e15" />
    </vehicle>
    <vehicle id="385" depart="385.00" type="normal_car">
        <route edges="e1 e13 e22 e24 e20 e16 e9 e11" />
    </vehicle>
    <vehicle id="386" depart="386.00" type="normal_car">