<nodes>
    <node id="1" x="700.0" y="0.0" type="priority"/>
    <node id="2" x="200.0" y="-100.0" type="priority"/>
    <node id="3" x="1000.0" y="-200.0" type="priority"/>
    <node id="4" x="0.0" y="-400.0" type="priority"/>
    <node id="5" x="400.0" y="-400.0" type="traffic_light"/>
    <node id="6" x="800.0" y="-400.0" type="traffic_light"/>
    <node id="7" x="400.0" y="-600.0" type="traffic_light"/>
    <node id="8" x="700.0" y="-600.0" type="traffic_light"/>
    <node id="9" x="1200.0" y="-600.0" type="priority"/>
    <node id="10" x="400.0" y="-800.0" type="traffic_light"/>
    <node id="11" x="500.0" y="-800.0" type="priority"/>
    <node id="12" x="600.0" y="-800.0" type="traffic_light"/>
    <node id="13" x="400.0" y="-900.0" type="priority"/>
    <node id="14" x="500.0" y="-900.0" type="priority"/>
    <node id="15" x="600.0" y="-900.0" type="priority"/>
    <node id="16" x="400.0" y="-1000.0" type="traffic_light"/>
    <node id="17" x="500.0" y="-1000.0" type="priority"/>
    <node id="18" x="600.0" y="-1000.0" type="traffic_light"/>
    <node id="19" x="0.0" y="-1200.0" type="priority"/>
    <node id="20" x="800.0" y="-1200.0" type="priority"/>
</nodes>