<configuration xmlns:xsi="http://www.w3.org/2001/XMLSchema-instance" xsi:noNamespaceSchemaLocation="http://sumo.dlr.de/xsd/duarouterConfiguration.xsd">

    <input>
        <net-file value="lucerne.net.xml"/>
        <route-files value="lucerne.trips.xml"/>
    </input>

    <time>
        <begin value="0"/>
        <end value="86400"/>
    </time>
</configuration>