<?xml version="1.0" encoding="UTF-8"?>

<!-- generated on 2022-03-04 12:05:43 by Eclipse SUMO netconvert Version 1.12.0
<configuration xmlns:xsi="http://www.w3.org/2001/XMLSchema-instance" xsi:noNamespaceSchemaLocation="http://sumo.dlr.de/xsd/netconvertConfiguration.xsd">

    <input>
        <node-files value="lucerne.nod.xml"/>
        <edge-files value="lucerne.edg.xml"/>
    </input>

    <output>
        <output-file value="lucerne.net.xml"/>
    </output>

    <report>
        <aggregate-warnings value="5"/>
    </report>

</configuration>
-->

<net version="1.9" junctionCornerDetail="5" limitTurnSpeed="5.50" xmlns:xsi="http://www.w3.org/2001/XMLSchema-instance" xsi:noNamespaceSchemaLocation="http://sumo.dlr.de/xsd/net_file.xsd">

    <location netOffset="0.00,1200.00" convBoundary="0.00,0.00,1200.00,1200.00" origBoundary="0.00,-1200.00,1200.00,0.00" projParameter="!"/>

    <edge id=":1_0" function="internal">
        <lane id=":1_0_0" index="0" speed="3.65" length="4.67" shape="701.43,1199.28 701.25,1200.72 700.72,1201.43 699.82,1201.43 698.57,1200.72"/>
    </edge>
    <edge id=":10_0" function="internal">
        <lane id=":10_0_0" index="0" speed="14.00" length="20.80" shape="395.20,410.40 395.20,389.60"/>
        <lane id=":10_0_1" index="1" speed="14.00" length="20.80" shape="398.40,410.40 398.40,389.60"/>
    </edge>
    <edge id=":10_2" function="internal">
        <lane id=":10_2_0" index="0" speed="9.26" length="5.01" shape="398.40,410.40 399.11,405.44"/>
    </edge>
    <edge id=":10_3" function="internal">
        <lane id=":10_3_0" index="0" speed="3.65" length="1.44" shape="398.40,410.40 399.20,409.20"/>
    </edge>
    <edge id=":10_11" function="internal">
        <lane id=":10_11_0" index="0" speed="9.26" length="14.34" shape="399.11,405.44 399.15,405.15 401.40,401.40 405.15,399.15 410.40,398.40"/>
    </edge>
    <edge id=":10_12" function="internal">
        <lane id=":10_12_0" index="0" speed="3.65" length="3.23" shape="399.20,409.20 400.00,408.80 400.80,409.20 401.60,410.40"/>
    </edge>
    <edge id=":10_4" function="internal">
        <lane id=":10_4_0" index="0" speed="6.51" length="9.03" shape="410.40,404.80 407.95,405.15 406.20,406.20 405.15,407.95 404.80,410.40"/>
    </edge>
    <edge id=":10_5" function="internal">
        <lane id=":10_5_0" index="0" speed="9.26" length="19.35" shape="410.40,401.60 405.15,400.85 401.40,398.60 399.15,394.85 398.40,389.60"/>
    </edge>
    <edge id=":10_6" function="internal">
        <lane id=":10_6_0" index="0" speed="3.65" length="4.67" shape="410.40,401.60 409.20,400.80 408.80,400.00 409.20,399.20 410.40,398.40"/>
    </edge>
    <edge id=":10_7" function="internal">
        <lane id=":10_7_0" index="0" speed="6.51" length="9.03" shape="404.80,389.60 405.15,392.05 406.20,393.80 407.95,394.85 410.40,395.20"/>
    </edge>
    <edge id=":10_8" function="internal">
        <lane id=":10_8_0" index="0" speed="14.00" length="20.80" shape="404.80,389.60 404.80,410.40"/>
        <lane id=":10_8_1" index="1" speed="14.00" length="20.80" shape="401.60,389.60 401.60,410.40"/>
    </edge>
    <edge id=":10_10" function="internal">
        <lane id=":10_10_0" index="0" speed="3.65" length="1.44" shape="401.60,389.60 400.80,390.80"/>
    </edge>
    <edge id=":10_13" function="internal">
        <lane id=":10_13_0" index="0" speed="3.65" length="3.23" shape="400.80,390.80 400.00,391.20 399.20,390.80 398.40,389.60"/>
    </edge>
    <edge id=":11_0" function="internal">
        <lane id=":11_0_0" index="0" speed="14.00" length="20.80" shape="510.40,404.80 489.60,404.80"/>
        <lane id=":11_0_1" index="1" speed="14.00" length="20.80" shape="510.40,401.60 489.60,401.60"/>
    </edge>
    <edge id=":11_2" function="internal">
        <lane id=":11_2_0" index="0" speed="9.26" length="5.01" shape="510.40,401.60 505.44,400.89"/>
    </edge>
    <edge id=":11_3" function="internal">
        <lane id=":11_3_0" index="0" speed="3.65" length="1.44" shape="510.40,401.60 509.20,400.80"/>
    </edge>
    <edge id=":11_11" function="internal">
        <lane id=":11_11_0" index="0" speed="9.26" length="14.34" shape="505.44,400.89 505.15,400.85 501.40,398.60 499.15,394.85 498.40,389.60"/>
    </edge>
    <edge id=":11_12" function="internal">
        <lane id=":11_12_0" index="0" speed="3.65" length="3.23" shape="509.20,400.80 508.80,400.00 509.20,399.20 510.40,398.40"/>
    </edge>
    <edge id=":11_4" function="internal">
        <lane id=":11_4_0" index="0" speed="6.51" length="9.03" shape="504.80,389.60 505.15,392.05 506.20,393.80 507.95,394.85 510.40,395.20"/>
    </edge>
    <edge id=":11_5" function="internal">
        <lane id=":11_5_0" index="0" speed="9.26" length="19.35" shape="501.60,389.60 500.85,394.85 498.60,398.60 494.85,400.85 489.60,401.60"/>
    </edge>
    <edge id=":11_6" function="internal">
        <lane id=":11_6_0" index="0" speed="3.65" length="4.67" shape="501.60,389.60 500.80,390.80 500.00,391.20 499.20,390.80 498.40,389.60"/>
    </edge>
    <edge id=":11_7" function="internal">
        <lane id=":11_7_0" index="0" speed="6.51" length="9.03" shape="489.60,395.20 492.05,394.85 493.80,393.80 494.85,392.05 495.20,389.60"/>
    </edge>
    <edge id=":11_8" function="internal">
        <lane id=":11_8_0" index="0" speed="14.00" length="20.80" shape="489.60,395.20 510.40,395.20"/>
        <lane id=":11_8_1" index="1" speed="14.00" length="20.80" shape="489.60,398.40 510.40,398.40"/>
    </edge>
    <edge id=":11_10" function="internal">
        <lane id=":11_10_0" index="0" speed="3.65" length="1.44" shape="489.60,398.40 490.80,399.20"/>
    </edge>
    <edge id=":11_13" function="internal">
        <lane id=":11_13_0" index="0" speed="3.65" length="3.23" shape="490.80,399.20 491.20,400.00 490.80,400.80 489.60,401.60"/>
    </edge>
    <edge id=":12_0" function="internal">
        <lane id=":12_0_0" index="0" speed="8.79" length="11.21" shape="599.26,409.26 597.82,407.31 595.73,405.92 592.99,405.08 589.60,404.80"/>
    </edge>
    <edge id=":12_1" function="internal">
        <lane id=":12_1_0" index="0" speed="14.00" length="19.66" shape="599.26,409.26 596.74,403.82 595.56,399.83 595.21,395.63 595.20,389.60"/>
        <lane id=":12_1_1" index="1" speed="14.00" length="19.66" shape="602.13,407.83 599.79,402.78 598.70,399.08 598.40,395.20 598.40,389.60"/>
    </edge>
    <edge id=":12_3" function="internal">
        <lane id=":12_3_0" index="0" speed="3.65" length="1.44" shape="602.13,407.83 602.31,406.40"/>
    </edge>
    <edge id=":12_11" function="internal">
        <lane id=":12_11_0" index="0" speed="3.65" length="3.23" shape="602.31,406.40 602.84,405.68 603.74,405.68 604.99,406.40"/>
    </edge>
    <edge id=":12_4" function="internal">
        <lane id=":12_4_0" index="0" speed="14.00" length="16.67" shape="604.80,389.60 604.78,394.32 605.01,397.59 605.90,400.71 607.85,404.97"/>
        <lane id=":12_4_1" index="1" speed="14.00" length="16.67" shape="601.60,389.60 601.59,394.76 601.86,398.34 602.84,401.75 604.99,406.40"/>
    </edge>
    <edge id=":12_6" function="internal">
        <lane id=":12_6_0" index="0" speed="9.26" length="5.03" shape="601.60,389.60 600.89,394.58"/>
    </edge>
    <edge id=":12_7" function="internal">
        <lane id=":12_7_0" index="0" speed="3.65" length="1.44" shape="601.60,389.60 600.80,390.80"/>
    </edge>
    <edge id=":12_12" function="internal">
        <lane id=":12_12_0" index="0" speed="9.26" length="14.32" shape="600.89,394.58 600.85,394.85 598.60,398.60 594.85,400.85 589.60,401.60"/>
    </edge>
    <edge id=":12_13" function="internal">
        <lane id=":12_13_0" index="0" speed="3.65" length="3.23" shape="600.80,390.80 600.00,391.20 599.20,390.80 598.40,389.60"/>
    </edge>
    <edge id=":12_8" function="internal">
        <lane id=":12_8_0" index="0" speed="6.51" length="9.03" shape="589.60,395.20 592.05,394.85 593.80,393.80 594.85,392.05 595.20,389.60"/>
    </edge>
    <edge id=":12_9" function="internal">
        <lane id=":12_9_0" index="0" speed="11.11" length="18.31" shape="589.60,398.40 594.83,398.90 599.14,400.40 602.53,402.90 604.99,406.40"/>
    </edge>
    <edge id=":12_10" function="internal">
        <lane id=":12_10_0" index="0" speed="3.65" length="4.67" shape="589.60,398.40 590.80,399.20 591.20,400.00 590.80,400.80 589.60,401.60"/>
    </edge>
    <edge id=":13_0" function="internal">
        <lane id=":13_0_0" index="0" speed="14.00" length="20.80" shape="395.20,310.40 395.20,289.60"/>
        <lane id=":13_0_1" index="1" speed="14.00" length="20.80" shape="398.40,310.40 398.40,289.60"/>
    </edge>
    <edge id=":13_2" function="internal">
        <lane id=":13_2_0" index="0" speed="9.26" length="5.01" shape="398.40,310.40 399.11,305.44"/>
    </edge>
    <edge id=":13_3" function="internal">
        <lane id=":13_3_0" index="0" speed="3.65" length="1.44" shape="398.40,310.40 399.20,309.20"/>
    </edge>
    <edge id=":13_11" function="internal">
        <lane id=":13_11_0" index="0" speed="9.26" length="14.34" shape="399.11,305.44 399.15,305.15 401.40,301.40 405.15,299.15 410.40,298.40"/>
    </edge>
    <edge id=":13_12" function="internal">
        <lane id=":13_12_0" index="0" speed="3.65" length="3.23" shape="399.20,309.20 400.00,308.80 400.80,309.20 401.60,310.40"/>
    </edge>
    <edge id=":13_4" function="internal">
        <lane id=":13_4_0" index="0" speed="6.51" length="9.03" shape="410.40,304.80 407.95,305.15 406.20,306.20 405.15,307.95 404.80,310.40"/>
    </edge>
    <edge id=":13_5" function="internal">
        <lane id=":13_5_0" index="0" speed="9.26" length="19.35" shape="410.40,301.60 405.15,300.85 401.40,298.60 399.15,294.85 398.40,289.60"/>
    </edge>
    <edge id=":13_6" function="internal">
        <lane id=":13_6_0" index="0" speed="3.65" length="4.67" shape="410.40,301.60 409.20,300.80 408.80,300.00 409.20,299.20 410.40,298.40"/>
    </edge>
    <edge id=":13_7" function="internal">
        <lane id=":13_7_0" index="0" speed="6.51" length="9.03" shape="404.80,289.60 405.15,292.05 406.20,293.80 407.95,294.85 410.40,295.20"/>
    </edge>
    <edge id=":13_8" function="internal">
        <lane id=":13_8_0" index="0" speed="14.00" length="20.80" shape="404.80,289.60 404.80,310.40"/>
        <lane id=":13_8_1" index="1" speed="14.00" length="20.80" shape="401.60,289.60 401.60,310.40"/>
    </edge>
    <edge id=":13_10" function="internal">
        <lane id=":13_10_0" index="0" speed="3.65" length="1.44" shape="401.60,289.60 400.80,290.80"/>
    </edge>
    <edge id=":13_13" function="internal">
        <lane id=":13_13_0" index="0" speed="3.65" length="3.23" shape="400.80,290.80 400.00,291.20 399.20,290.80 398.40,289.60"/>
    </edge>
    <edge id=":14_0" function="internal">
        <lane id=":14_0_0" index="0" speed="6.51" length="9.03" shape="495.20,310.40 494.85,307.95 493.80,306.20 492.05,305.15 489.60,304.80"/>
    </edge>
    <edge id=":14_1" function="internal">
        <lane id=":14_1_0" index="0" speed="14.00" length="20.80" shape="495.20,310.40 495.20,289.60"/>
        <lane id=":14_1_1" index="1" speed="14.00" length="20.80" shape="498.40,310.40 498.40,289.60"/>
    </edge>
    <edge id=":14_3" function="internal">
        <lane id=":14_3_0" index="0" speed="9.26" length="5.01" shape="498.40,310.40 499.11,305.44"/>
    </edge>
    <edge id=":14_4" function="internal">
        <lane id=":14_4_0" index="0" speed="3.65" length="1.44" shape="498.40,310.40 499.20,309.20"/>
    </edge>
    <edge id=":14_20" function="internal">
        <lane id=":14_20_0" index="0" speed="9.26" length="14.34" shape="499.11,305.44 499.15,305.15 501.40,301.40 505.15,299.15 510.40,298.40"/>
    </edge>
    <edge id=":14_21" function="internal">
        <lane id=":14_21_0" index="0" speed="3.65" length="3.23" shape="499.20,309.20 500.00,308.80 500.80,309.20 501.60,310.40"/>
    </edge>
    <edge id=":14_5" function="internal">
        <lane id=":14_5_0" index="0" speed="6.51" length="9.03" shape="510.40,304.80 507.95,305.15 506.20,306.20 505.15,307.95 504.80,310.40"/>
    </edge>
    <edge id=":14_6" function="internal">
        <lane id=":14_6_0" index="0" speed="14.00" length="20.80" shape="510.40,304.80 489.60,304.80"/>
        <lane id=":14_6_1" index="1" speed="14.00" length="20.80" shape="510.40,301.60 489.60,301.60"/>
    </edge>
    <edge id=":14_8" function="internal">
        <lane id=":14_8_0" index="0" speed="9.26" length="19.35" shape="510.40,301.60 505.15,300.85 501.40,298.60 499.15,294.85 498.40,289.60"/>
    </edge>
    <edge id=":14_9" function="internal">
        <lane id=":14_9_0" index="0" speed="3.65" length="4.67" shape="510.40,301.60 509.20,300.80 508.80,300.00 509.20,299.20 510.40,298.40"/>
    </edge>
    <edge id=":14_10" function="internal">
        <lane id=":14_10_0" index="0" speed="6.51" length="9.03" shape="504.80,289.60 505.15,292.05 506.20,293.80 507.95,294.85 510.40,295.20"/>
    </edge>
    <edge id=":14_11" function="internal">
        <lane id=":14_11_0" index="0" speed="14.00" length="20.80" shape="504.80,289.60 504.80,310.40"/>
        <lane id=":14_11_1" index="1" speed="14.00" length="20.80" shape="501.60,289.60 501.60,310.40"/>
    </edge>
    <edge id=":14_13" function="internal">
        <lane id=":14_13_0" index="0" speed="9.26" length="5.01" shape="501.60,289.60 500.89,294.56"/>
    </edge>
    <edge id=":14_14" function="internal">
        <lane id=":14_14_0" index="0" speed="3.65" length="1.44" shape="501.60,289.60 500.80,290.80"/>
    </edge>
    <edge id=":14_22" function="internal">
        <lane id=":14_22_0" index="0" speed="9.26" length="14.34" shape="500.89,294.56 500.85,294.85 498.60,298.60 494.85,300.85 489.60,301.60"/>
    </edge>
    <edge id=":14_23" function="internal">
        <lane id=":14_23_0" index="0" speed="3.65" length="3.23" shape="500.80,290.80 500.00,291.20 499.20,290.80 498.40,289.60"/>
    </edge>
    <edge id=":14_15" function="internal">
        <lane id=":14_15_0" index="0" speed="6.51" length="9.03" shape="489.60,295.20 492.05,294.85 493.80,293.80 494.85,292.05 495.20,289.60"/>
    </edge>
    <edge id=":14_16" function="internal">
        <lane id=":14_16_0" index="0" speed="14.00" length="20.80" shape="489.60,295.20 510.40,295.20"/>
        <lane id=":14_16_1" index="1" speed="14.00" length="20.80" shape="489.60,298.40 510.40,298.40"/>
    </edge>
    <edge id=":14_18" function="internal">
        <lane id=":14_18_0" index="0" speed="9.26" length="19.35" shape="489.60,298.40 494.85,299.15 498.60,301.40 500.85,305.15 501.60,310.40"/>
    </edge>
    <edge id=":14_19" function="internal">
        <lane id=":14_19_0" index="0" speed="3.65" length="4.67" shape="489.60,298.40 490.80,299.20 491.20,300.00 490.80,300.80 489.60,301.60"/>
    </edge>
    <edge id=":15_0" function="internal">
        <lane id=":15_0_0" index="0" speed="6.51" length="9.03" shape="595.20,310.40 594.85,307.95 593.80,306.20 592.05,305.15 589.60,304.80"/>
    </edge>
    <edge id=":15_1" function="internal">
        <lane id=":15_1_0" index="0" speed="14.00" length="20.80" shape="595.20,310.40 595.20,289.60"/>
        <lane id=":15_1_1" index="1" speed="14.00" length="20.80" shape="598.40,310.40 598.40,289.60"/>
    </edge>
    <edge id=":15_3" function="internal">
        <lane id=":15_3_0" index="0" speed="3.65" length="1.44" shape="598.40,310.40 599.20,309.20"/>
    </edge>
    <edge id=":15_11" function="internal">
        <lane id=":15_11_0" index="0" speed="3.65" length="3.23" shape="599.20,309.20 600.00,308.80 600.80,309.20 601.60,310.40"/>
    </edge>
    <edge id=":15_4" function="internal">
        <lane id=":15_4_0" index="0" speed="14.00" length="20.80" shape="604.80,289.60 604.80,310.40"/>
        <lane id=":15_4_1" index="1" speed="14.00" length="20.80" shape="601.60,289.60 601.60,310.40"/>
    </edge>
    <edge id=":15_6" function="internal">
        <lane id=":15_6_0" index="0" speed="9.26" length="5.01" shape="601.60,289.60 600.89,294.56"/>
    </edge>
    <edge id=":15_7" function="internal">
        <lane id=":15_7_0" index="0" speed="3.65" length="1.44" shape="601.60,289.60 600.80,290.80"/>
    </edge>
    <edge id=":15_12" function="internal">
        <lane id=":15_12_0" index="0" speed="9.26" length="14.34" shape="600.89,294.56 600.85,294.85 598.60,298.60 594.85,300.85 589.60,301.60"/>
    </edge>
    <edge id=":15_13" function="internal">
        <lane id=":15_13_0" index="0" speed="3.65" length="3.23" shape="600.80,290.80 600.00,291.20 599.20,290.80 598.40,289.60"/>
    </edge>
    <edge id=":15_8" function="internal">
        <lane id=":15_8_0" index="0" speed="6.51" length="9.03" shape="589.60,295.20 592.05,294.85 593.80,293.80 594.85,292.05 595.20,289.60"/>
    </edge>
    <edge id=":15_9" function="internal">
        <lane id=":15_9_0" index="0" speed="9.26" length="19.35" shape="589.60,298.40 594.85,299.15 598.60,301.40 600.85,305.15 601.60,310.40"/>
    </edge>
    <edge id=":15_10" function="internal">
        <lane id=":15_10_0" index="0" speed="3.65" length="4.67" shape="589.60,298.40 590.80,299.20 591.20,300.00 590.80,300.80 589.60,301.60"/>
    </edge>
    <edge id=":16_0" function="internal">
        <lane id=":16_0_0" index="0" speed="8.79" length="11.21" shape="395.20,210.40 394.92,207.01 394.08,204.27 392.69,202.18 390.74,200.74"/>
    </edge>
    <edge id=":16_1" function="internal">
        <lane id=":16_1_0" index="0" speed="9.26" length="19.35" shape="398.40,210.40 399.15,205.15 401.40,201.40 405.15,199.15 410.40,198.40"/>
    </edge>
    <edge id=":16_2" function="internal">
        <lane id=":16_2_0" index="0" speed="3.65" length="4.67" shape="398.40,210.40 399.20,209.20 400.00,208.80 400.80,209.20 401.60,210.40"/>
    </edge>
    <edge id=":16_3" function="internal">
        <lane id=":16_3_0" index="0" speed="6.51" length="9.03" shape="410.40,204.80 407.95,205.15 406.20,206.20 405.15,207.95 404.80,210.40"/>
    </edge>
    <edge id=":16_4" function="internal">
        <lane id=":16_4_0" index="0" speed="14.00" length="19.66" shape="410.40,204.80 404.37,204.79 400.17,204.44 396.18,203.26 390.74,200.74"/>
        <lane id=":16_4_1" index="1" speed="14.00" length="19.66" shape="410.40,201.60 404.80,201.60 400.92,201.30 397.22,200.21 392.17,197.87"/>
    </edge>
    <edge id=":16_6" function="internal">
        <lane id=":16_6_0" index="0" speed="3.65" length="1.44" shape="410.40,201.60 409.20,200.80"/>
    </edge>
    <edge id=":16_11" function="internal">
        <lane id=":16_11_0" index="0" speed="3.65" length="3.23" shape="409.20,200.80 408.80,200.00 409.20,199.20 410.40,198.40"/>
    </edge>
    <edge id=":16_7" function="internal">
        <lane id=":16_7_0" index="0" speed="14.00" length="16.67" shape="395.03,192.15 399.29,194.10 402.41,194.99 405.68,195.22 410.40,195.20"/>
        <lane id=":16_7_1" index="1" speed="14.00" length="16.67" shape="393.60,195.01 398.25,197.16 401.66,198.14 405.24,198.41 410.40,198.40"/>
    </edge>
    <edge id=":16_9" function="internal">
        <lane id=":16_9_0" index="0" speed="11.11" length="3.99" shape="393.60,195.01 396.87,197.31"/>
    </edge>
    <edge id=":16_10" function="internal">
        <lane id=":16_10_0" index="0" speed="3.65" length="1.44" shape="393.60,195.01 394.32,196.26"/>
    </edge>
    <edge id=":16_12" function="internal">
        <lane id=":16_12_0" index="0" speed="11.11" length="14.31" shape="396.87,197.31 397.10,197.47 399.60,200.86 401.10,205.17 401.60,210.40"/>
    </edge>
    <edge id=":16_13" function="internal">
        <lane id=":16_13_0" index="0" speed="3.65" length="3.23" shape="394.32,196.26 394.32,197.16 393.60,197.69 392.17,197.87"/>
    </edge>
    <edge id=":17_0" function="internal">
        <lane id=":17_0_0" index="0" speed="6.51" length="9.03" shape="495.20,210.40 494.85,207.95 493.80,206.20 492.05,205.15 489.60,204.80"/>
    </edge>
    <edge id=":17_1" function="internal">
        <lane id=":17_1_0" index="0" speed="9.26" length="19.35" shape="498.40,210.40 499.15,205.15 501.40,201.40 505.15,199.15 510.40,198.40"/>
    </edge>
    <edge id=":17_2" function="internal">
        <lane id=":17_2_0" index="0" speed="3.65" length="4.67" shape="498.40,210.40 499.20,209.20 500.00,208.80 500.80,209.20 501.60,210.40"/>
    </edge>
    <edge id=":17_3" function="internal">
        <lane id=":17_3_0" index="0" speed="6.51" length="9.03" shape="510.40,204.80 507.95,205.15 506.20,206.20 505.15,207.95 504.80,210.40"/>
    </edge>
    <edge id=":17_4" function="internal">
        <lane id=":17_4_0" index="0" speed="14.00" length="20.80" shape="510.40,204.80 489.60,204.80"/>
        <lane id=":17_4_1" index="1" speed="14.00" length="20.80" shape="510.40,201.60 489.60,201.60"/>
    </edge>
    <edge id=":17_6" function="internal">
        <lane id=":17_6_0" index="0" speed="3.65" length="1.44" shape="510.40,201.60 509.20,200.80"/>
    </edge>
    <edge id=":17_11" function="internal">
        <lane id=":17_11_0" index="0" speed="3.65" length="3.23" shape="509.20,200.80 508.80,200.00 509.20,199.20 510.40,198.40"/>
    </edge>
    <edge id=":17_7" function="internal">
        <lane id=":17_7_0" index="0" speed="14.00" length="20.80" shape="489.60,195.20 510.40,195.20"/>
        <lane id=":17_7_1" index="1" speed="14.00" length="20.80" shape="489.60,198.40 510.40,198.40"/>
    </edge>
    <edge id=":17_9" function="internal">
        <lane id=":17_9_0" index="0" speed="9.26" length="5.01" shape="489.60,198.40 494.56,199.11"/>
    </edge>
    <edge id=":17_10" function="internal">
        <lane id=":17_10_0" index="0" speed="3.65" length="1.44" shape="489.60,198.40 490.80,199.20"/>
    </edge>
    <edge id=":17_12" function="internal">
        <lane id=":17_12_0" index="0" speed="9.26" length="14.34" shape="494.56,199.11 494.85,199.15 498.60,201.40 500.85,205.15 501.60,210.40"/>
    </edge>
    <edge id=":17_13" function="internal">
        <lane id=":17_13_0" index="0" speed="3.65" length="3.23" shape="490.80,199.20 491.20,200.00 490.80,200.80 489.60,201.60"/>
    </edge>
    <edge id=":18_0" function="internal">
        <lane id=":18_0_0" index="0" speed="6.51" length="9.03" shape="595.20,210.40 594.85,207.95 593.80,206.20 592.05,205.15 589.60,204.80"/>
    </edge>
    <edge id=":18_1" function="internal">
        <lane id=":18_1_0" index="0" speed="14.00" length="19.96" shape="595.20,210.40 595.58,204.60 596.73,199.58 598.64,195.35 601.31,191.90"/>
        <lane id=":18_1_1" index="1" speed="13.84" length="17.82" shape="598.40,210.40 598.36,205.12 598.73,201.35 600.22,198.05 603.57,194.17"/>
    </edge>
    <edge id=":18_3" function="internal">
        <lane id=":18_3_0" index="0" speed="3.65" length="1.44" shape="598.40,210.40 599.20,209.20"/>
    </edge>
    <edge id=":18_11" function="internal">
        <lane id=":18_11_0" index="0" speed="3.65" length="3.23" shape="599.20,209.20 600.00,208.80 600.80,209.20 601.60,210.40"/>
    </edge>
    <edge id=":18_4" function="internal">
        <lane id=":18_4_0" index="0" speed="11.62" length="12.44" shape="608.10,198.69 606.65,200.66 605.62,203.27 605.01,206.51 604.80,210.40"/>
        <lane id=":18_4_1" index="1" speed="12.70" length="14.95" shape="605.83,196.43 603.98,198.89 602.66,202.04 601.86,205.88 601.60,210.40"/>
    </edge>
    <edge id=":18_6" function="internal">
        <lane id=":18_6_0" index="0" speed="13.70" length="3.49" shape="605.83,196.43 603.06,198.55"/>
    </edge>
    <edge id=":18_7" function="internal">
        <lane id=":18_7_0" index="0" speed="3.65" length="1.44" shape="605.83,196.43 604.42,196.71"/>
    </edge>
    <edge id=":18_12" function="internal">
        <lane id=":18_12_0" index="0" speed="13.70" length="13.97" shape="603.06,198.55 602.88,198.69 599.19,200.31 594.76,201.28 589.60,201.60"/>
    </edge>
    <edge id=":18_13" function="internal">
        <lane id=":18_13_0" index="0" speed="3.65" length="3.23" shape="604.42,196.71 603.57,196.43 603.29,195.58 603.57,194.17"/>
    </edge>
    <edge id=":18_8" function="internal">
        <lane id=":18_8_0" index="0" speed="11.62" length="12.44" shape="589.60,195.20 593.49,194.99 596.73,194.38 599.34,193.35 601.31,191.90"/>
    </edge>
    <edge id=":18_9" function="internal">
        <lane id=":18_9_0" index="0" speed="9.26" length="19.35" shape="589.60,198.40 594.85,199.15 598.60,201.40 600.85,205.15 601.60,210.40"/>
    </edge>
    <edge id=":18_10" function="internal">
        <lane id=":18_10_0" index="0" speed="3.65" length="4.67" shape="589.60,198.40 590.80,199.20 591.20,200.00 590.80,200.80 589.60,201.60"/>
    </edge>
    <edge id=":19_0" function="internal">
        <lane id=":19_0_0" index="0" speed="3.65" length="4.67" shape="-0.72,1.43 -1.43,0.18 -1.43,-0.72 -0.72,-1.25 0.72,-1.43"/>
    </edge>
    <edge id=":2_0" function="internal">
        <lane id=":2_0_0" index="0" speed="3.65" length="4.67" shape="201.33,1100.89 200.00,1101.44 199.11,1101.33 198.67,1100.55 198.67,1099.11"/>
    </edge>
    <edge id=":20_0" function="internal">
        <lane id=":20_0_0" index="0" speed="3.65" length="4.67" shape="798.87,-1.13 800.28,-1.41 801.13,-1.13 801.41,-0.28 801.13,1.13"/>
    </edge>
    <edge id=":3_0" function="internal">
        <lane id=":3_0_0" index="0" speed="3.65" length="4.67" shape="1001.13,998.87 1001.41,1000.28 1001.13,1001.13 1000.28,1001.41 998.87,1001.13"/>
    </edge>
    <edge id=":4_0" function="internal">
        <lane id=":4_0_0" index="0" speed="3.65" length="4.67" shape="0.00,801.60 -1.20,800.80 -1.60,800.00 -1.20,799.20 0.00,798.40"/>
    </edge>
    <edge id=":5_0" function="internal">
        <lane id=":5_0_0" index="0" speed="12.41" length="19.61" shape="410.40,804.80 406.51,805.50 402.67,807.59 398.88,811.07 395.14,815.94"/>
    </edge>
    <edge id=":5_1" function="internal">
        <lane id=":5_1_0" index="0" speed="14.00" length="26.36" shape="410.40,804.80 384.04,804.80"/>
        <lane id=":5_1_1" index="1" speed="14.00" length="26.36" shape="410.40,801.60 384.04,801.60"/>
    </edge>
    <edge id=":5_3" function="internal">
        <lane id=":5_3_0" index="0" speed="9.26" length="5.01" shape="410.40,801.60 405.44,800.89"/>
    </edge>
    <edge id=":5_4" function="internal">
        <lane id=":5_4_0" index="0" speed="3.65" length="1.44" shape="410.40,801.60 409.20,800.80"/>
    </edge>
    <edge id=":5_20" function="internal">
        <lane id=":5_20_0" index="0" speed="9.26" length="14.34" shape="405.44,800.89 405.15,800.85 401.40,798.60 399.15,794.85 398.40,789.60"/>
    </edge>
    <edge id=":5_21" function="internal">
        <lane id=":5_21_0" index="0" speed="3.65" length="3.23" shape="409.20,800.80 408.80,800.00 409.20,799.20 410.40,798.40"/>
    </edge>
    <edge id=":5_5" function="internal">
        <lane id=":5_5_0" index="0" speed="6.51" length="9.03" shape="404.80,789.60 405.15,792.05 406.20,793.80 407.95,794.85 410.40,795.20"/>
    </edge>
    <edge id=":5_6" function="internal">
        <lane id=":5_6_0" index="0" speed="14.00" length="27.56" shape="404.80,789.60 404.07,796.76 402.05,803.40 398.99,809.72 395.14,815.94"/>
        <lane id=":5_6_1" index="1" speed="14.00" length="27.56" shape="401.60,789.60 400.95,796.49 399.12,802.51 396.24,808.22 392.48,814.17"/>
    </edge>
    <edge id=":5_8" function="internal">
        <lane id=":5_8_0" index="0" speed="10.26" length="24.00" shape="401.60,789.60 400.50,794.85 397.21,798.60 391.72,800.85 384.04,801.60"/>
    </edge>
    <edge id=":5_9" function="internal">
        <lane id=":5_9_0" index="0" speed="3.65" length="4.67" shape="401.60,789.60 400.80,790.80 400.00,791.20 399.20,790.80 398.40,789.60"/>
    </edge>
    <edge id=":5_10" function="internal">
        <lane id=":5_10_0" index="0" speed="7.90" length="13.81" shape="384.04,795.20 388.92,794.85 392.41,793.80 394.50,792.05 395.20,789.60"/>
    </edge>
    <edge id=":5_11" function="internal">
        <lane id=":5_11_0" index="0" speed="14.00" length="26.36" shape="384.04,795.20 410.40,795.20"/>
        <lane id=":5_11_1" index="1" speed="14.00" length="26.36" shape="384.04,798.40 410.40,798.40"/>
    </edge>
    <edge id=":5_13" function="internal">
        <lane id=":5_13_0" index="0" speed="8.81" length="5.53" shape="384.04,798.40 389.52,799.11"/>
    </edge>
    <edge id=":5_14" function="internal">
        <lane id=":5_14_0" index="0" speed="3.65" length="1.44" shape="384.04,798.40 385.24,799.20"/>
    </edge>
    <edge id=":5_22" function="internal">
        <lane id=":5_22_0" index="0" speed="8.81" length="19.74" shape="389.52,799.11 391.67,799.39 395.62,802.34 395.89,807.27 392.48,814.17"/>
    </edge>
    <edge id=":5_23" function="internal">
        <lane id=":5_23_0" index="0" speed="3.65" length="3.23" shape="385.24,799.20 385.64,800.00 385.24,800.80 384.04,801.60"/>
    </edge>
    <edge id=":5_15" function="internal">
        <lane id=":5_15_0" index="0" speed="5.61" length="9.32" shape="387.15,810.62 388.41,808.07 388.31,806.25 386.86,805.16 384.04,804.80"/>
    </edge>
    <edge id=":5_16" function="internal">
        <lane id=":5_16_0" index="0" speed="14.00" length="23.91" shape="387.15,810.62 390.75,805.23 393.26,800.74 394.72,795.93 395.20,789.60"/>
        <lane id=":5_16_1" index="1" speed="14.00" length="23.91" shape="389.82,812.39 393.50,806.73 396.19,801.63 397.84,796.21 398.40,789.60"/>
    </edge>
    <edge id=":5_18" function="internal">
        <lane id=":5_18_0" index="0" speed="14.00" length="25.89" shape="389.82,812.39 394.60,806.27 399.63,801.90 404.89,799.27 410.40,798.40"/>
    </edge>
    <edge id=":5_19" function="internal">
        <lane id=":5_19_0" index="0" speed="3.65" length="4.67" shape="389.82,812.39 391.15,811.84 392.04,811.95 392.48,812.72 392.48,814.17"/>
    </edge>
    <edge id=":6_0" function="internal">
        <lane id=":6_0_0" index="0" speed="13.25" length="16.29" shape="801.31,808.10 799.09,806.65 795.74,805.62 791.26,805.01 785.64,804.80"/>
    </edge>
    <edge id=":6_1" function="internal">