<?xml version="1.0" encoding="UTF-8"?>

<!-- generated on 2022-03-04 22:36:04 by Eclipse SUMO netconvert Version 1.12.0
<configuration xmlns:xsi="http://www.w3.org/2001/XMLSchema-instance" xsi:noNamespaceSchemaLocation="http://sumo.dlr.de/xsd/netconvertConfiguration.xsd">

    <input>
        <node-files value="nets/lucerne.nod.xml"/>
        <edge-files value="nets/lucerne.edg.xml"/>
    </input>

    <output>
        <output-file value="nets/lucerne.net.xml"/>
    </output>

    <report>
        <aggregate-warnings value="5"/>
    </report>

</configuration>
-->

<net version="1.9" junctionCornerDetail="5" limitTurnSpeed="5.50" xmlns:xsi="http://www.w3.org/2001/XMLSchema-instance" xsi:noNamespaceSchemaLocation="http://sumo.dlr.de/xsd/net_file.xsd">

    <location netOffset="0.00,1200.00" convBoundary="0.00,0.00,1200.00,1200.00" origBoundary="0.00,-1200.00,1200.00,0.00" projParameter="!"/>

    <edge id=":1_0" function="internal">
        <lane id=":1_0_0" index="0" speed="3.65" length="4.67" shape="701.43,1199.28 701.25,1200.72 700.72,1201.43 699.82,1201.43 698.57,1200.72"/>
    </edge>
    <edge id=":10_0" function="internal">
        <lane id=":10_0_0" index="0" disallow="pedestrian" speed="20.00" length="20.80" shape="395.20,410.40 395.20,389.60"/>
        <lane id=":10_0_1" index="1" disallow="pedestrian" speed="20.00" length="20.80" shape="398.40,410.40 398.40,389.60"/>
    </edge>
    <edge id=":10_2" function="internal">
        <lane id=":10_2_0" index="0" disallow="pedestrian" speed="9.26" length="5.01" shape="398.40,410.40 399.11,405.44"/>
    </edge>
    <edge id=":10_3" function="internal">
        <lane id=":10_3_0" index="0" disallow="pedestrian" speed="3.65" length="1.44" shape="398.40,410.40 399.20,409.20"/>
    </edge>
    <edge id=":10_12" function="internal">
        <lane id=":10_12_0" index="0" disallow="pedestrian" speed="9.26" length="14.34" shape="399.11,405.44 399.15,405.15 401.40,401.40 405.15,399.15 410.40,398.40"/>
    </edge>
    <edge id=":10_13" function="internal">
        <lane id=":10_13_0" index="0" disallow="pedestrian" speed="3.65" length="3.23" shape="399.20,409.20 400.00,408.80 400.80,409.20 401.60,410.40"/>
    </edge>
    <edge id=":10_4" function="internal">
        <lane id=":10_4_0" index="0" disallow="pedestrian" speed="6.51" length="9.03" shape="410.40,404.80 407.95,405.15 406.20,406.20 405.15,407.95 404.80,410.40"/>
        <lane id=":10_4_1" index="1" disallow="pedestrian" speed="8.00" length="14.19" shape="410.40,401.60 406.55,402.15 403.80,403.80 402.15,406.55 401.60,410.40"/>
    </edge>
    <edge id=":10_6" function="internal">
        <lane id=":10_6_0" index="0" disallow="pedestrian" speed="9.26" length="19.35" shape="410.40,401.60 405.15,400.85 401.40,398.60 399.15,394.85 398.40,389.60"/>
    </edge>
    <edge id=":10_7" function="internal">
        <lane id=":10_7_0" index="0" disallow="pedestrian" speed="3.65" length="2.34" shape="410.40,401.60 409.20,400.80 408.80,400.00"/>
    </edge>
    <edge id=":10_14" function="internal">
        <lane id=":10_14_0" index="0" disallow="pedestrian" speed="3.65" length="2.34" shape="408.80,400.00 409.20,399.20 410.40,398.40"/>
    </edge>
    <edge id=":10_8" function="internal">
        <lane id=":10_8_0" index="0" disallow="pedestrian" speed="6.51" length="9.03" shape="404.80,389.60 405.15,392.05 406.20,393.80 407.95,394.85 410.40,395.20"/>
    </edge>
    <edge id=":10_9" function="internal">
        <lane id=":10_9_0" index="0" disallow="pedestrian" speed="20.00" length="20.80" shape="404.80,389.60 404.80,410.40"/>
        <lane id=":10_9_1" index="1" disallow="pedestrian" speed="20.00" length="20.80" shape="401.60,389.60 401.60,410.40"/>
    </edge>
    <edge id=":10_11" function="internal">
        <lane id=":10_11_0" index="0" disallow="pedestrian" speed="3.65" length="1.44" shape="401.60,389.60 400.80,390.80"/>
    </edge>
    <edge id=":10_15" function="internal">
        <lane id=":10_15_0" index="0" disallow="pedestrian" speed="3.65" length="3.23" shape="400.80,390.80 400.00,391.20 399.20,390.80 398.40,389.60"/>
    </edge>
    <edge id=":11_0" function="internal">
        <lane id=":11_0_0" index="0" disallow="pedestrian" speed="20.00" length="12.40" shape="506.20,404.80 493.80,404.80"/>
        <lane id=":11_0_1" index="1" disallow="pedestrian" speed="20.00" length="12.40" shape="506.20,401.60 493.80,401.60"/>
    </edge>
    <edge id=":11_2" function="internal">
        <lane id=":11_2_0" index="0" disallow="pedestrian" speed="8.49" length="3.28" shape="506.20,401.60 502.99,400.89"/>
    </edge>
    <edge id=":11_3" function="internal">
        <lane id=":11_3_0" index="0" disallow="pedestrian" speed="3.65" length="1.44" shape="506.20,401.60 505.00,400.80"/>
    </edge>
    <edge id=":11_11" function="internal">
        <lane id=":11_11_0" index="0" disallow="pedestrian" speed="8.49" length="12.82" shape="502.99,400.89 502.79,400.85 500.35,398.60 498.89,394.85 498.40,389.60"/>
    </edge>
    <edge id=":11_12" function="internal">
        <lane id=":11_12_0" index="0" disallow="pedestrian" speed="3.65" length="3.23" shape="505.00,400.80 504.60,400.00 505.00,399.20 506.20,398.40"/>
    </edge>
    <edge id=":11_4" function="internal">
        <lane id=":11_4_0" index="0" disallow="pedestrian" speed="6.25" length="8.24" shape="501.60,389.60 501.89,392.05 502.75,393.80 504.19,394.85 506.20,395.20"/>
    </edge>
    <edge id=":11_5" function="internal">
        <lane id=":11_5_0" index="0" disallow="pedestrian" speed="8.49" length="16.11" shape="501.60,389.60 501.11,394.85 499.65,398.60 497.21,400.85 493.80,401.60"/>
    </edge>
    <edge id=":11_6" function="internal">
        <lane id=":11_6_0" index="0" disallow="pedestrian" speed="3.65" length="4.67" shape="501.60,389.60 500.80,390.80 500.00,391.20 499.20,390.80 498.40,389.60"/>
    </edge>
    <edge id=":11_7" function="internal">
        <lane id=":11_7_0" index="0" disallow="pedestrian" speed="6.25" length="8.24" shape="493.80,395.20 495.81,394.85 497.25,393.80 498.11,392.05 498.40,389.60"/>
    </edge>
    <edge id=":11_8" function="internal">
        <lane id=":11_8_0" index="0" disallow="pedestrian" speed="20.00" length="12.40" shape="493.80,395.20 506.20,395.20"/>
        <lane id=":11_8_1" index="1" disallow="pedestrian" speed="20.00" length="12.40" shape="493.80,398.40 506.20,398.40"/>
    </edge>
    <edge id=":11_10" function="internal">
        <lane id=":11_10_0" index="0" disallow="pedestrian" speed="3.65" length="1.44" shape="493.80,398.40 495.00,399.20"/>
    </edge>
    <edge id=":11_13" function="internal">
        <lane id=":11_13_0" index="0" disallow="pedestrian" speed="3.65" length="3.23" shape="495.00,399.20 495.40,400.00 495.00,400.80 493.80,401.60"/>
    </edge>
    <edge id=":12_0" function="internal">
        <lane id=":12_0_0" index="0" disallow="pedestrian" speed="8.55" length="10.55" shape="598.92,408.58 597.63,406.93 595.65,405.74 592.97,405.04 589.60,404.80"/>
    </edge>
    <edge id=":12_1" function="internal">
        <lane id=":12_1_0" index="0" disallow="pedestrian" speed="20.00" length="18.91" shape="598.92,408.58 596.52,403.32 595.44,399.47 595.17,395.43 595.20,389.60"/>
        <lane id=":12_1_1" index="1" disallow="pedestrian" speed="20.00" length="18.91" shape="601.79,407.15 599.57,402.29 598.59,398.73 598.37,394.99 598.40,389.60"/>
    </edge>
    <edge id=":12_3" function="internal">
        <lane id=":12_3_0" index="0" disallow="pedestrian" speed="3.65" length="1.44" shape="601.79,407.15 601.96,405.72"/>
    </edge>
    <edge id=":12_11" function="internal">
        <lane id=":12_11_0" index="0" disallow="pedestrian" speed="3.65" length="3.23" shape="601.96,405.72 602.50,405.00 603.40,405.00 604.65,405.72"/>
    </edge>
    <edge id=":12_4" function="internal">
        <lane id=":12_4_0" index="0" disallow="pedestrian" speed="20.00" length="15.93" shape="604.80,389.60 604.75,394.11 604.90,397.24 605.68,400.22 607.51,404.29"/>
        <lane id=":12_4_1" index="1" disallow="pedestrian" speed="20.00" length="15.93" shape="601.60,389.60 601.56,394.55 601.75,397.98 602.62,401.26 604.65,405.72"/>
    </edge>
    <edge id=":12_6" function="internal">
        <lane id=":12_6_0" index="0" disallow="pedestrian" speed="9.26" length="5.15" shape="601.60,389.60 600.87,394.70"/>
    </edge>
    <edge id=":12_7" function="internal">
        <lane id=":12_7_0" index="0" disallow="pedestrian" speed="3.65" length="1.44" shape="601.60,389.60 600.80,390.80"/>
    </edge>
    <edge id=":12_12" function="internal">
        <lane id=":12_12_0" index="0" disallow="pedestrian" speed="9.26" length="14.20" shape="600.87,394.70 600.85,394.85 598.60,398.60 594.85,400.85 589.60,401.60"/>
    </edge>
    <edge id=":12_13" function="internal">
        <lane id=":12_13_0" index="0" disallow="pedestrian" speed="3.65" length="3.23" shape="600.80,390.80 600.00,391.20 599.20,390.80 598.40,389.60"/>
    </edge>
    <edge id=":12_8" function="internal">
        <lane id=":12_8_0" index="0" disallow="pedestrian" speed="6.51" length="9.03" shape="589.60,395.20 592.05,394.85 593.80,393.80 594.85,392.05 595.20,389.60"/>
    </edge>
    <edge id=":12_9" function="internal">
        <lane id=":12_9_0" index="0" disallow="pedestrian" speed="10.92" length="17.64" shape="589.60,398.40 594.81,398.86 599.06,400.23 602.33,402.52 604.65,405.72"/>
    </edge>
    <edge id=":12_10" function="internal">
        <lane id=":12_10_0" index="0" disallow="pedestrian" speed="3.65" length="2.34" shape="589.60,398.40 590.80,399.20 591.20,400.00"/>
    </edge>
    <edge id=":12_14" function="internal">
        <lane id=":12_14_0" index="0" disallow="pedestrian" speed="3.65" length="2.34" shape="591.20,400.00 590.80,400.80 589.60,401.60"/>
    </edge>
    <edge id=":13_0" function="internal">
        <lane id=":13_0_0" index="0" disallow="pedestrian" speed="20.00" length="12.40" shape="395.20,306.20 395.20,293.80"/>
        <lane id=":13_0_1" index="1" disallow="pedestrian" speed="20.00" length="12.40" shape="398.40,306.20 398.40,293.80"/>
    </edge>
    <edge id=":13_2" function="internal">
        <lane id=":13_2_0" index="0" disallow="pedestrian" speed="8.49" length="3.28" shape="398.40,306.20 399.11,302.99"/>
    </edge>
    <edge id=":13_3" function="internal">
        <lane id=":13_3_0" index="0" disallow="pedestrian" speed="3.65" length="1.44" shape="398.40,306.20 399.20,305.00"/>
    </edge>
    <edge id=":13_11" function="internal">
        <lane id=":13_11_0" index="0" disallow="pedestrian" speed="8.49" length="12.82" shape="399.11,302.99 399.15,302.79 401.40,300.35 405.15,298.89 410.40,298.40"/>
    </edge>
    <edge id=":13_12" function="internal">
        <lane id=":13_12_0" index="0" disallow="pedestrian" speed="3.65" length="3.23" shape="399.20,305.00 400.00,304.60 400.80,305.00 401.60,306.20"/>
    </edge>
    <edge id=":13_4" function="internal">
        <lane id=":13_4_0" index="0" disallow="pedestrian" speed="6.25" length="8.24" shape="410.40,301.60 407.95,301.89 406.20,302.75 405.15,304.19 404.80,306.20"/>
    </edge>
    <edge id=":13_5" function="internal">
        <lane id=":13_5_0" index="0" disallow="pedestrian" speed="8.49" length="16.11" shape="410.40,301.60 405.15,301.11 401.40,299.65 399.15,297.21 398.40,293.80"/>
    </edge>
    <edge id=":13_6" function="internal">
        <lane id=":13_6_0" index="0" disallow="pedestrian" speed="3.65" length="4.67" shape="410.40,301.60 409.20,300.80 408.80,300.00 409.20,299.20 410.40,298.40"/>
    </edge>
    <edge id=":13_7" function="internal">
        <lane id=":13_7_0" index="0" disallow="pedestrian" speed="6.25" length="8.24" shape="404.80,293.80 405.15,295.81 406.20,297.25 407.95,298.11 410.40,298.40"/>
    </edge>
    <edge id=":13_8" function="internal">
        <lane id=":13_8_0" index="0" disallow="pedestrian" speed="20.00" length="12.40" shape="404.80,293.80 404.80,306.20"/>
        <lane id=":13_8_1" index="1" disallow="pedestrian" speed="20.00" length="12.40" shape="401.60,293.80 401.60,306.20"/>
    </edge>
    <edge id=":13_10" function="internal">
        <lane id=":13_10_0" index="0" disallow="pedestrian" speed="3.65" length="1.44" shape="401.60,293.80 400.80,295.00"/>
    </edge>
    <edge id=":13_13" function="internal">
        <lane id=":13_13_0" index="0" disallow="pedestrian" speed="3.65" length="3.23" shape="400.80,295.00 400.00,295.40 399.20,295.00 398.40,293.80"/>
    </edge>
    <edge id=":14_0" function="internal">
        <lane id=":14_0_0" index="0" disallow="pedestrian" speed="6.51" length="9.03" shape="498.40,307.20 498.05,304.75 497.00,303.00 495.25,301.95 492.80,301.60"/>
    </edge>
    <edge id=":14_1" function="internal">
        <lane id=":14_1_0" index="0" disallow="pedestrian" speed="14.00" length="14.40" shape="498.40,307.20 498.40,292.80"/>
    </edge>
    <edge id=":14_2" function="internal">
        <lane id=":14_2_0" index="0" disallow="pedestrian" speed="8.00" length="4.07" shape="498.40,307.20 498.95,303.35 499.04,303.20"/>
    </edge>
    <edge id=":14_3" function="internal">
        <lane id=":14_3_0" index="0" disallow="pedestrian" speed="3.65" length="1.44" shape="498.40,307.20 499.20,306.00"/>
    </edge>
    <edge id=":14_16" function="internal">
        <lane id=":14_16_0" index="0" disallow="pedestrian" speed="8.00" length="10.13" shape="499.04,303.20 500.60,300.60 503.35,298.95 507.20,298.40"/>
    </edge>
    <edge id=":14_17" function="internal">
        <lane id=":14_17_0" index="0" disallow="pedestrian" speed="3.65" length="3.23" shape="499.20,306.00 500.00,305.60 500.80,306.00 501.60,307.20"/>
    </edge>
    <edge id=":14_4" function="internal">
        <lane id=":14_4_0" index="0" disallow="pedestrian" speed="6.51" length="9.03" shape="507.20,301.60 504.75,301.95 503.00,303.00 501.95,304.75 501.60,307.20"/>
    </edge>
    <edge id=":14_5" function="internal">
        <lane id=":14_5_0" index="0" disallow="pedestrian" speed="14.00" length="14.40" shape="507.20,301.60 492.80,301.60"/>
    </edge>
    <edge id=":14_6" function="internal">
        <lane id=":14_6_0" index="0" disallow="pedestrian" speed="8.00" length="14.19" shape="507.20,301.60 503.35,301.05 500.60,299.40 498.95,296.65 498.40,292.80"/>
    </edge>
    <edge id=":14_7" function="internal">
        <lane id=":14_7_0" index="0" disallow="pedestrian" speed="3.65" length="4.67" shape="507.20,301.60 506.00,300.80 505.60,300.00 506.00,299.20 507.20,298.40"/>
    </edge>
    <edge id=":14_8" function="internal">
        <lane id=":14_8_0" index="0" disallow="pedestrian" speed="6.51" length="9.03" shape="501.60,292.80 501.95,295.25 503.00,297.00 504.75,298.05 507.20,298.40"/>
    </edge>
    <edge id=":14_9" function="internal">
        <lane id=":14_9_0" index="0" disallow="pedestrian" speed="14.00" length="14.40" shape="501.60,292.80 501.60,307.20"/>
    </edge>
    <edge id=":14_10" function="internal">
        <lane id=":14_10_0" index="0" disallow="pedestrian" speed="8.00" length="4.07" shape="501.60,292.80 501.05,296.65 500.96,296.80"/>
    </edge>
    <edge id=":14_11" function="internal">
        <lane id=":14_11_0" index="0" disallow="pedestrian" speed="3.65" length="1.44" shape="501.60,292.80 500.80,294.00"/>
    </edge>
    <edge id=":14_18" function="internal">
        <lane id=":14_18_0" index="0" disallow="pedestrian" speed="8.00" length="10.13" shape="500.96,296.80 499.40,299.40 496.65,301.05 492.80,301.60"/>
    </edge>
    <edge id=":14_19" function="internal">
        <lane id=":14_19_0" index="0" disallow="pedestrian" speed="3.65" length="3.23" shape="500.80,294.00 500.00,294.40 499.20,294.00 498.40,292.80"/>
    </edge>
    <edge id=":14_12" function="internal">
        <lane id=":14_12_0" index="0" disallow="pedestrian" speed="6.51" length="9.03" shape="492.80,298.40 495.25,298.05 497.00,297.00 498.05,295.25 498.40,292.80"/>
    </edge>
    <edge id=":14_13" function="internal">
        <lane id=":14_13_0" index="0" disallow="pedestrian" speed="14.00" length="14.40" shape="492.80,298.40 507.20,298.40"/>
    </edge>
    <edge id=":14_14" function="internal">
        <lane id=":14_14_0" index="0" disallow="pedestrian" speed="8.00" length="14.19" shape="492.80,298.40 496.65,298.95 499.40,300.60 501.05,303.35 501.60,307.20"/>
    </edge>
    <edge id=":14_15" function="internal">
        <lane id=":14_15_0" index="0" disallow="pedestrian" speed="3.65" length="4.67" shape="492.80,298.40 494.00,299.20 494.40,300.00 494.00,300.80 492.80,301.60"/>
    </edge>
    <edge id=":15_0" function="internal">
        <lane id=":15_0_0" index="0" disallow="pedestrian" speed="6.25" length="8.24" shape="595.20,306.20 594.85,304.19 593.80,302.75 592.05,301.89 589.60,301.60"/>
    </edge>
    <edge id=":15_1" function="internal">
        <lane id=":15_1_0" index="0" disallow="pedestrian" speed="20.00" length="12.40" shape="595.20,306.20 595.20,293.80"/>
        <lane id=":15_1_1" index="1" disallow="pedestrian" speed="20.00" length="12.40" shape="598.40,306.20 598.40,293.80"/>
    </edge>
    <edge id=":15_3" function="internal">
        <lane id=":15_3_0" index="0" disallow="pedestrian" speed="3.65" length="1.44" shape="598.40,306.20 599.20,305.00"/>
    </edge>
    <edge id=":15_11" function="internal">
        <lane id=":15_11_0" index="0" disallow="pedestrian" speed="3.65" length="3.23" shape="599.20,305.00 600.00,304.60 600.80,305.00 601.60,306.20"/>
    </edge>
    <edge id=":15_4" function="internal">
        <lane id=":15_4_0" index="0" disallow="pedestrian" speed="20.00" length="12.40" shape="604.80,293.80 604.80,306.20"/>
        <lane id=":15_4_1" index="1" disallow="pedestrian" speed="20.00" length="12.40" shape="601.60,293.80 601.60,306.20"/>
    </edge>
    <edge id=":15_6" function="internal">
        <lane id=":15_6_0" index="0" disallow="pedestrian" speed="8.49" length="3.28" shape="601.60,293.80 600.89,297.01"/>
    </edge>
    <edge id=":15_7" function="internal">
        <lane id=":15_7_0" index="0" disallow="pedestrian" speed="3.65" length="1.44" shape="601.60,293.80 600.80,295.00"/>
    </edge>
    <edge id=":15_12" function="internal">
        <lane id=":15_12_0" index="0" disallow="pedestrian" speed="8.49" length="12.82" shape="600.89,297.01 600.85,297.21 598.60,299.65 594.85,301.11 589.60,301.60"/>
    </edge>
    <edge id=":15_13" function="internal">
        <lane id=":15_13_0" index="0" disallow="pedestrian" speed="3.65" length="3.23" shape="600.80,295.00 600.00,295.40 599.20,295.00 598.40,293.80"/>
    </edge>
    <edge id=":15_8" function="internal">
        <lane id=":15_8_0" index="0" disallow="pedestrian" speed="6.25" length="8.24" shape="589.60,298.40 592.05,298.11 593.80,297.25 594.85,295.81 595.20,293.80"/>
    </edge>
    <edge id=":15_9" function="internal">
        <lane id=":15_9_0" index="0" disallow="pedestrian" speed="8.49" length="16.11" shape="589.60,298.40 594.85,298.89 598.60,300.35 600.85,302.79 601.60,306.20"/>
    </edge>
    <edge id=":15_10" function="internal">
        <lane id=":15_10_0" index="0" disallow="pedestrian" speed="3.65" length="4.67" shape="589.60,298.40 590.80,299.20 591.20,300.00 590.80,300.80 589.60,301.60"/>
    </edge>
    <edge id=":16_0" function="internal">
        <lane id=":16_0_0" index="0" disallow="pedestrian" speed="8.55" length="10.55" shape="395.20,210.40 394.96,207.03 394.26,204.35 393.07,202.37 391.42,201.08"/>
        <lane id=":16_0_1" index="1" disallow="pedestrian" speed="9.80" length="14.09" shape="398.40,210.40 398.05,206.11 397.01,202.65 395.28,200.02 392.85,198.21"/>
    </edge>
    <edge id=":16_2" function="internal">
        <lane id=":16_2_0" index="0" disallow="pedestrian" speed="9.26" length="19.35" shape="398.40,210.40 399.15,205.15 401.40,201.40 405.15,199.15 410.40,198.40"/>
    </edge>
    <edge id=":16_3" function="internal">
        <lane id=":16_3_0" index="0" disallow="pedestrian" speed="3.65" length="2.34" shape="398.40,210.40 399.20,209.20 400.00,208.80"/>
    </edge>
    <edge id=":16_12" function="internal">
        <lane id=":16_12_0" index="0" disallow="pedestrian" speed="3.65" length="2.34" shape="400.00,208.80 400.80,209.20 401.60,210.40"/>
    </edge>
    <edge id=":16_4" function="internal">
        <lane id=":16_4_0" index="0" disallow="pedestrian" speed="6.51" length="9.03" shape="410.40,204.80 407.95,205.15 406.20,206.20 405.15,207.95 404.80,210.40"/>
    </edge>
    <edge id=":16_5" function="internal">
        <lane id=":16_5_0" index="0" disallow="pedestrian" speed="23.24" length="18.91" shape="410.40,204.80 404.57,204.83 400.53,204.56 396.68,203.48 391.42,201.08"/>
        <lane id=":16_5_1" index="1" disallow="pedestrian" speed="22.35" length="18.91" shape="410.40,201.60 405.01,201.63 401.27,201.41 397.71,200.43 392.85,198.21"/>
    </edge>
    <edge id=":16_7" function="internal">
        <lane id=":16_7_0" index="0" disallow="pedestrian" speed="3.65" length="1.44" shape="410.40,201.60 409.20,200.80"/>
    </edge>
    <edge id=":16_13" function="internal">
        <lane id=":16_13_0" index="0" disallow="pedestrian" speed="3.65" length="3.23" shape="409.20,200.80 408.80,200.00 409.20,199.20 410.40,198.40"/>
    </edge>
    <edge id=":16_8" function="internal">
        <lane id=":16_8_0" index="0" disallow="pedestrian" speed="20.45" length="15.93" shape="395.71,192.49 399.78,194.32 402.76,195.10 405.89,195.25 410.40,195.20"/>
        <lane id=":16_8_1" index="1" disallow="pedestrian" speed="21.42" length="15.93" shape="394.28,195.35 398.74,197.38 402.02,198.25 405.45,198.44 410.40,198.40"/>
    </edge>
    <edge id=":16_10" function="internal">
        <lane id=":16_10_0" index="0" disallow="pedestrian" speed="10.92" length="3.64" shape="394.28,195.35 397.24,197.49"/>
    </edge>
    <edge id=":16_11" function="internal">
        <lane id=":16_11_0" index="0" disallow="pedestrian" speed="3.65" length="1.44" shape="394.28,195.35 395.00,196.60"/>
    </edge>
    <edge id=":16_14" function="internal">
        <lane id=":16_14_0" index="0" disallow="pedestrian" speed="10.92" length="14.00" shape="397.24,197.49 397.48,197.67 399.77,200.94 401.14,205.19 401.60,210.40"/>
    </edge>
    <edge id=":16_15" function="internal">
        <lane id=":16_15_0" index="0" disallow="pedestrian" speed="3.65" length="3.23" shape="395.00,196.60 395.00,197.50 394.28,198.04 392.85,198.21"/>
    </edge>
    <edge id=":17_0" function="internal">
        <lane id=":17_0_0" index="0" disallow="pedestrian" speed="6.25" length="8.24" shape="498.40,210.40 498.11,207.95 497.25,206.20 495.81,205.15 493.80,204.80"/>
    </edge>
    <edge id=":17_1" function="internal">
        <lane id=":17_1_0" index="0" disallow="pedestrian" speed="8.49" length="16.11" shape="498.40,210.40 498.89,205.15 500.35,201.40 502.79,199.15 506.20,198.40"/>
    </edge>
    <edge id=":17_2" function="internal">
        <lane id=":17_2_0" index="0" disallow="pedestrian" speed="3.65" length="4.67" shape="498.40,210.40 499.20,209.20 500.00,208.80 500.80,209.20 501.60,210.40"/>
    </edge>
    <edge id=":17_3" function="internal">
        <lane id=":17_3_0" index="0" disallow="pedestrian" speed="6.25" length="8.24" shape="506.20,204.80 504.19,205.15 502.75,206.20 501.89,207.95 501.60,210.40"/>
    </edge>
    <edge id=":17_4" function="internal">
        <lane id=":17_4_0" index="0" disallow="pedestrian" speed="20.00" length="12.40" shape="506.20,204.80 493.80,204.80"/>
        <lane id=":17_4_1" index="1" disallow="pedestrian" speed="20.00" length="12.40" shape="506.20,201.60 493.80,201.60"/>
    </edge>
    <edge id=":17_6" function="internal">
        <lane id=":17_6_0" index="0" disallow="pedestrian" speed="3.65" length="1.44" shape="506.20,201.60 505.00,200.80"/>
    </edge>
    <edge id=":17_11" function="internal">
        <lane id=":17_11_0" index="0" disallow="pedestrian" speed="3.65" length="3.23" shape="505.00,200.80 504.60,200.00 505.00,199.20 506.20,198.40"/>
    </edge>
    <edge id=":17_7" function="internal">
        <lane id=":17_7_0" index="0" disallow="pedestrian" speed="20.00" length="12.40" shape="493.80,195.20 506.20,195.20"/>
        <lane id=":17_7_1" index="1" disallow="pedestrian" speed="20.00" length="12.40" shape="493.80,198.40 506.20,198.40"/>
    </edge>
    <edge id=":17_9" function="internal">
        <lane id=":17_9_0" index="0" disallow="pedestrian" speed="8.49" length="3.28" shape="493.80,198.40 497.01,199.11"/>
    </edge>
    <edge id=":17_10" function="internal">
        <lane id=":17_10_0" index="0" disallow="pedestrian" speed="3.65" length="1.44" shape="493.80,198.40 495.00,199.20"/>
    </edge>
    <edge id=":17_12" function="internal">
        <lane id=":17_12_0" index="0" disallow="pedestrian" speed="8.49" length="12.82" shape="497.01,199.11 497.21,199.15 499.65,201.40 501.11,205.15 501.60,210.40"/>
    </edge>
    <edge id=":17_13" function="internal">
        <lane id=":17_13_0" index="0" disallow="pedestrian" speed="3.65" length="3.23" shape="495.00,199.20 495.40,200.00 495.00,200.80 493.80,201.60"/>
    </edge>
    <edge id=":18_0" function="internal">
        <lane id=":18_0_0" index="0" disallow="pedestrian" speed="6.51" length="9.03" shape="595.20,210.40 594.85,207.95 593.80,206.20 592.05,205.15 589.60,204.80"/>
    </edge>
    <edge id=":18_1" function="internal">
        <lane id=":18_1_0" index="0" disallow="pedestrian" speed="14.24" length="18.88" shape="595.20,210.40 595.53,204.65 596.52,199.79 598.17,195.82 600.48,192.73"/>
        <lane id=":18_1_1" index="1" disallow="pedestrian" speed="13.28" length="16.37" shape="598.40,210.40 598.67,205.29 599.49,201.02 600.84,197.59 602.74,194.99"/>
    </edge>
    <edge id=":18_3" function="internal">
        <lane id=":18_3_0" index="0" disallow="pedestrian" speed="3.65" length="1.44" shape="598.40,210.40 599.20,209.20"/>
    </edge>
    <edge id=":18_12" function="internal">
        <lane id=":18_12_0" index="0" disallow="pedestrian" speed="3.65" length="3.23" shape="599.20,209.20 600.00,208.80 600.80,209.20 601.60,210.40"/>
    </edge>
    <edge id=":18_4" function="internal">
        <lane id=":18_4_0" index="0" disallow="pedestrian" speed="11.13" length="11.37" shape="607.27,199.52 606.19,201.13 605.42,203.47 604.95,206.57 604.80,210.40"/>
        <lane id=":18_4_1" index="1" disallow="pedestrian" speed="12.25" length="13.87" shape="605.01,197.26 603.52,199.36 602.45,202.25 601.81,205.93 601.60,210.40"/>
    </edge>
    <edge id=":18_6" function="internal">
        <lane id=":18_6_0" index="0" disallow="pedestrian" speed="13.28" length="2.34" shape="605.01,197.26 603.12,198.64"/>
    </edge>
    <edge id=":18_7" function="internal">
        <lane id=":18_7_0" index="0" disallow="pedestrian" speed="3.65" length="1.29" shape="605.01,197.26 603.74,197.51"/>
    </edge>
    <edge id=":18_13" function="internal">
        <lane id=":18_13_0" index="0" disallow="pedestrian" speed="13.28" length="14.03" shape="603.12,198.64 602.41,199.16 598.98,200.51 594.71,201.33 589.60,201.60"/>
    </edge>
    <edge id=":18_14" function="internal">
        <lane id=":18_14_0" index="0" disallow="pedestrian" speed="3.65" length="3.38" shape="603.74,197.51 603.59,197.54 602.74,197.26 602.46,196.41 602.74,194.99"/>
    </edge>
    <edge id=":18_8" function="internal">
        <lane id=":18_8_0" index="0" disallow="pedestrian" speed="11.13" length="11.37" shape="589.60,195.20 593.43,195.05 596.53,194.58 598.87,193.81 600.48,192.73"/>
        <lane id=":18_8_1" index="1" disallow="pedestrian" speed="12.25" length="13.87" shape="589.60,198.40 594.07,198.19 597.75,197.55 600.64,196.48 602.74,194.99"/>
    </edge>
    <edge id=":18_10" function="internal">
        <lane id=":18_10_0" index="0" disallow="pedestrian" speed="9.26" length="19.35" shape="589.60,198.40 594.85,199.15 598.60,201.40 600.85,205.15 601.60,210.40"/>
    </edge>
    <edge id=":18_11" function="internal">
        <lane id=":18_11_0" index="0" disallow="pedestrian" speed="3.65" length="2.34" shape="589.60,198.40 590.80,199.20 591.20,200.00"/>
    </edge>
    <edge id=":18_15" function="internal">
        <lane id=":18_15_0" index="0" disallow="pedestrian" speed="3.65" length="2.34" shape="591.20,200.00 590.80,200.80 589.60,201.60"/>
    </edge>
    <edge id=":19_0" function="internal">
        <lane id=":19_0_0" index="0" disallow="pedestrian" speed="3.65" length="4.67" shape="-0.72,1.43 -1.43,0.18 -1.43,-0.72 -0.72,-1.25 0.72,-1.43"/>
    </edge>
    <edge id=":2_0" function="internal">
        <lane id=":2_0_0" index="0" disallow="pedestrian" speed="3.65" length="4.67" shape="201.33,1100.89 200.00,1101.44 199.11,1101.33 198.67,1100.55 198.67,1099.11"/>
    </edge>
    <edge id=":20_0" function="internal">
        <lane id=":20_0_0" index="0" disallow="pedestrian" speed="3.65" length="4.67" shape="798.87,-1.13 800.28,-1.41 801.13,-1.13 801.41,-0.28 801.13,1.13"/>
    </edge>
    <edge id=":3_0" function="internal">
        <lane id=":3_0_0" index="0" disallow="pedestrian" speed="3.65" length="4.67" shape="1001.13,998.87 1001.41,1000.28 1001.13,1001.13 1000.28,1001.41 998.87,1001.13"/>
    </edge>
    <edge id=":4_0" function="internal">
        <lane id=":4_0_0" index="0" disallow="pedestrian" speed="3.65" length="4.67" shape="0.00,801.60 -1.20,800.80 -1.60,800.00 -1.20,799.20 0.00,798.40"/>
    </edge>
    <edge id=":5_0" function="internal">
        <lane id=":5_0_0" index="0" disallow="pedestrian" speed="12.66" length="20.44" shape="410.40,804.80 406.48,805.54 402.55,807.77 398.61,811.47 394.66,816.66"/>
    </edge>
    <edge id=":5_1" function="internal">
        <lane id=":5_1_0" index="0" disallow="pedestrian" speed="30.00" length="27.23" shape="410.40,804.80 383.17,804.80"/>
        <lane id=":5_1_1" index="1" disallow="pedestrian" speed="30.00" length="27.23" shape="410.40,801.60 383.17,801.60"/>
    </edge>
    <edge id=":5_3" function="internal">
        <lane id=":5_3_0" index="0" disallow="pedestrian" speed="9.26" length="5.01" shape="410.40,801.60 405.44,800.89"/>
    </edge>