<?xml version="1.0" encoding="UTF-8"?>

<!-- generated on 2022-03-06 12:42:03 by Eclipse SUMO netconvert Version 1.12.0
<configuration xmlns:xsi="http://www.w3.org/2001/XMLSchema-instance" xsi:noNamespaceSchemaLocation="http://sumo.dlr.de/xsd/netconvertConfiguration.xsd">

    <input>
        <type-files value="C:\Program%20Files%20(x86)\Eclipse\Sumo\data\typemap\osmNetconvert.typ.xml"/>
        <osm-files value="osm_bbox.osm.xml"/>
    </input>

    <output>
        <output-file value="osm.net.xml"/>
        <output.street-names value="true"/>
        <output.original-names value="true"/>
        <ptstop-output value="osm_stops.add.xml"/>
        <ptline-output value="osm_ptlines.xml"/>
    </output>

    <projection>
        <proj.utm value="true"/>
    </projection>

    <processing>
        <geometry.remove value="true"/>
        <roundabouts.guess value="true"/>
    </processing>

    <tls_building>
        <tls.discard-simple value="true"/>
        <tls.join value="true"/>
        <tls.guess-signals value="true"/>
        <tls.default-type value="actuated"/>
    </tls_building>

    <ramp_guessing>
        <ramps.guess value="true"/>
    </ramp_guessing>

    <edge_removal>
        <keep-edges.by-vclass value="passenger,bus,tram,rail_urban,rail"/>
    </edge_removal>

    <junctions>
        <junctions.join value="true"/>
        <junctions.corner-detail value="5"/>
    </junctions>

    <railway>
        <railway.topology.repair value="true"/>
        <railway.topology.repair.stop-turn value="true"/>
    </railway>

    <report>
        <verbose value="true"/>
        <aggregate-warnings value="5"/>
    </report>

</configuration>
-->

<net version="1.9" junctionCornerDetail="5" limitTurnSpeed="5.50" xmlns:xsi="http://www.w3.org/2001/XMLSchema-instance" xsi:noNamespaceSchemaLocation="http://sumo.dlr.de/xsd/net_file.xsd">

    <location netOffset="-444230.38,-5209790.34" convBoundary="0.00,0.00,6102.92,3064.11" origBoundary="8.265751,46.899728,8.614059,47.067151" projParameter="+proj=utm +zone=32 +ellps=WGS84 +datum=WGS84 +units=m +no_defs"/>

    <type id="highway.bridleway" priority="1" numLanes="1" speed="2.78" allow="pedestrian" oneway="1" width="2.00"/>
    <type id="highway.bus_guideway" priority="1" numLanes="1" speed="27.78" allow="bus" oneway="1"/>
    <type id="highway.cycleway" priority="1" numLanes="1" speed="8.33" allow="bicycle" oneway="0" width="1.00"/>
    <type id="highway.footway" priority="1" numLanes="1" speed="2.78" allow="pedestrian" oneway="1" width="2.00"/>
    <type id="highway.ford" priority="1" numLanes="1" speed="2.78" allow="army" oneway="0"/>
    <type id="highway.living_street" priority="2" numLanes="1" speed="2.78" disallow="tram rail_urban rail rail_electric rail_fast ship" oneway="0"/>
    <type id="highway.motorway" priority="14" numLanes="2" speed="39.44" allow="private emergency authority army vip passenger hov taxi bus coach delivery truck trailer motorcycle evehicle custom1 custom2" oneway="1"/>
    <type id="highway.motorway_link" priority="9" numLanes="1" speed="22.22" allow="private emergency authority army vip passenger hov taxi bus coach delivery truck trailer motorcycle evehicle custom1 custom2" oneway="1"/>
    <type id="highway.path" priority="1" numLanes="1" speed="2.78" allow="pedestrian bicycle" oneway="0" width="2.00"/>
    <type id="highway.pedestrian" priority="1" numLanes="1" speed="2.78" allow="pedestrian" oneway="1" width="2.00"/>
    <type id="highway.primary" priority="12" numLanes="2" speed="27.78" disallow="tram rail_urban rail rail_electric rail_fast ship" oneway="0"/>
    <type id="highway.primary_link" priority="7" numLanes="1" speed="22.22" disallow="tram rail_urban rail rail_electric rail_fast ship" oneway="0"/>
    <type id="highway.raceway" priority="15" numLanes="2" speed="83.33" allow="vip" oneway="0"/>
    <type id="highway.residential" priority="3" numLanes="1" speed="13.89" disallow="tram rail_urban rail rail_electric rail_fast ship" oneway="0"/>
    <type id="highway.secondary" priority="11" numLanes="1" speed="27.78" disallow="tram rail_urban rail rail_electric rail_fast ship" oneway="0"/>
    <type id="highway.secondary_link" priority="6" numLanes="1" speed="22.22" disallow="tram rail_urban rail rail_electric rail_fast ship" oneway="0"/>
    <type id="highway.service" priority="1" numLanes="1" speed="5.56" allow="pedestrian delivery bicycle" oneway="0"/>
    <type id="highway.stairs" priority="1" numLanes="1" speed="1.39" allow="pedestrian" oneway="1" width="2.00"/>
    <type id="highway.step" priority="1" numLanes="1" speed="1.39" allow="pedestrian" oneway="1" width="2.00"/>
    <type id="highway.steps" priority="1" numLanes="1" speed="1.39" allow="pedestrian" oneway="1" width="2.00"/>
    <type id="highway.tertiary" priority="10" numLanes="1" speed="22.22" disallow="tram rail_urban rail rail_electric rail_fast ship" oneway="0"/>
    <type id="highway.tertiary_link" priority="5" numLanes="1" speed="22.22" disallow="tram rail_urban rail rail_electric rail_fast ship" oneway="0"/>
    <type id="highway.track" priority="1" numLanes="1" speed="5.56" allow="pedestrian motorcycle moped bicycle" oneway="0"/>
    <type id="highway.trunk" priority="13" numLanes="2" speed="27.78" disallow="pedestrian bicycle tram rail_urban rail rail_electric rail_fast ship" oneway="0"/>
    <type id="highway.trunk_link" priority="8" numLanes="1" speed="22.22" disallow="pedestrian bicycle tram rail_urban rail rail_electric rail_fast ship" oneway="0"/>
    <type id="highway.unclassified" priority="4" numLanes="1" speed="13.89" disallow="tram rail_urban rail rail_electric rail_fast ship" oneway="0"/>
    <type id="highway.unsurfaced" priority="1" numLanes="1" speed="8.33" disallow="tram rail_urban rail rail_electric rail_fast ship" oneway="0"/>
    <type id="railway.highspeed" priority="21" numLanes="1" speed="69.44" allow="rail_fast" oneway="1"/>
    <type id="railway.light_rail" priority="19" numLanes="1" speed="27.78" allow="rail_urban" oneway="1"/>
    <type id="railway.preserved" priority="16" numLanes="1" speed="27.78" allow="rail" oneway="1"/>
    <type id="railway.rail" priority="20" numLanes="1" speed="44.44" allow="rail" oneway="1"/>
    <type id="railway.subway" priority="18" numLanes="1" speed="27.78" allow="rail_urban" oneway="1"/>
    <type id="railway.tram" priority="17" numLanes="1" speed="13.89" allow="tram" oneway="1"/>

    <edge id=":1002463026_0" function="internal">
        <lane id=":1002463026_0_0" index="0" allow="rail rail_electric rail_fast" speed="0.10" length="0.10" shape="3650.06,717.62 3650.06,717.62"/>
    </edge>
    <edge id=":1002463033_0" function="internal">
        <lane id=":1002463033_0_0" index="0" allow="rail rail_electric rail_fast" speed="44.44" length="20.33" shape="3488.10,770.57 3485.25,766.99 3481.54,762.82 3477.74,758.72 3474.63,755.35"/>
    </edge>
    <edge id=":1002463033_1" function="internal">
        <lane id=":1002463033_1_0" index="0" allow="rail rail_electric rail_fast" speed="44.44" length="31.37" shape="3488.10,770.57 3469.86,745.05"/>
    </edge>
    <edge id=":1002463033_2" function="internal">
        <lane id=":1002463033_2_0" index="0" allow="rail rail_electric rail_fast" speed="44.44" length="20.32" shape="3488.25,770.42 3474.63,755.35"/>
    </edge>
    <edge id=":1002463033_3" function="internal">
        <lane id=":1002463033_3_0" index="0" allow="rail rail_electric rail_fast" speed="44.44" length="31.35" shape="3488.25,770.42 3484.36,765.48 3478.87,757.88 3473.48,750.21 3469.86,745.05"/>
    </edge>
    <edge id=":1002463049_0" function="internal" bidi=":1002463049_2">
        <lane id=":1002463049_0_0" index="0" allow="rail rail_electric rail_fast" speed="8.33" length="37.64" shape="3374.93,714.45 3375.26,707.17 3375.30,695.63 3375.07,684.09 3374.57,676.83"/>
    </edge>
    <edge id=":1002463049_1" function="internal">
        <lane id=":1002463049_1_0" index="0" allow="rail rail_electric rail_fast" speed="8.33" length="37.63" shape="3378.48,714.25 3374.57,676.83"/>
    </edge>
    <edge id=":1002463049_2" function="internal" bidi=":1002463049_0">
        <lane id=":1002463049_2_0" index="0" allow="rail rail_electric rail_fast" speed="8.33" length="37.64" shape="3374.57,676.83 3375.07,684.09 3375.30,695.63 3375.26,707.17 3374.93,714.45"/>
    </edge>
    <edge id=":1002463054_0" function="internal">
        <lane id=":1002463054_0_0" index="0" allow="rail" speed="44.44" length="0.10" shape="3440.59,630.22 3440.59,630.22"/>
    </edge>
    <edge id=":1002463068_0" function="internal">
        <lane id=":1002463068_0_0" index="0" allow="rail rail_electric rail_fast" speed="0.10" length="0.10" shape="3624.92,1046.05 3624.92,1046.05"/>
    </edge>
    <edge id=":1002463115_0" function="internal">
        <lane id=":1002463115_0_0" index="0" allow="rail rail_electric rail_fast" speed="44.44" length="24.41" shape="3476.06,798.05 3465.03,776.27"/>
    </edge>
    <edge id=":1002463115_1" function="internal">
        <lane id=":1002463115_1_0" index="0" allow="rail rail_electric rail_fast" speed="44.44" length="24.41" shape="3478.99,796.29 3475.95,792.05 3471.87,786.37 3467.86,780.65 3465.03,776.27"/>
    </edge>
    <edge id=":1002463116_0" function="internal">
        <lane id=":1002463116_0_0" index="0" allow="rail rail_electric rail_fast" speed="44.44" length="38.22" shape="3486.26,632.93 3452.47,615.05"/>
    </edge>
    <edge id=":1002463116_1" function="internal">
        <lane id=":1002463116_1_0" index="0" allow="rail rail_electric rail_fast" speed="44.44" length="38.34" shape="3487.82,629.86 3480.89,627.28 3469.98,622.84 3459.15,618.21 3452.47,615.05"/>
    </edge>
    <edge id=":1002463117_0" function="internal">
        <lane id=":1002463117_0_0" index="0" allow="rail rail_electric rail_fast" speed="44.44" length="0.23" shape="3332.46,518.36 3332.43,518.29 3332.41,518.25 3332.38,518.21 3332.34,518.15"/>
    </edge>
    <edge id=":1002463117_1" function="internal">
        <lane id=":1002463117_1_0" index="0" allow="rail rail_electric rail_fast" speed="44.44" length="0.23" shape="3332.35,518.15 3332.46,518.36"/>
    </edge>
    <edge id=":1002463129_0" function="internal">
        <lane id=":1002463129_0_0" index="0" disallow="tram rail_urban rail rail_electric rail_fast ship" speed="8.33" length="11.18" shape="3692.33,852.40 3689.65,854.06 3687.74,855.57 3686.10,857.37 3684.23,859.91"/>
    </edge>
    <edge id=":1002463129_1" function="internal">
        <lane id=":1002463129_1_0" index="0" allow="rail" speed="44.44" length="13.42" shape="3680.10,854.00 3683.51,854.77 3686.67,855.34 3689.84,855.80 3693.32,856.21"/>
    </edge>
    <edge id=":1002463129_2" function="internal">
        <lane id=":1002463129_2_0" index="0" disallow="tram rail_urban rail rail_electric rail_fast ship" speed="8.33" length="12.17" shape="3681.61,858.06 3683.60,855.41 3685.47,853.36 3687.61,851.60 3690.40,849.82"/>
    </edge>
    <edge id=":1002463133_0" function="internal">
        <lane id=":1002463133_0_0" index="0" allow="rail rail_electric rail_fast" speed="44.44" length="37.90" shape="3452.30,736.34 3430.42,705.40"/>
    </edge>
    <edge id=":1002463133_1" function="internal">
        <lane id=":1002463133_1_0" index="0" allow="rail rail_electric rail_fast" speed="44.44" length="31.56" shape="3450.58,729.67 3446.36,724.95 3440.26,717.73 3434.28,710.42 3430.42,705.40"/>
    </edge>
    <edge id=":1002463166_0" function="internal" bidi=":1002463166_1">
        <lane id=":1002463166_0_0" index="0" allow="rail rail_electric rail_fast" speed="3.94" length="4.81" shape="3519.07,652.96 3518.27,652.07 3518.37,650.89 3519.13,649.96 3520.35,649.78"/>
    </edge>
    <edge id=":1002463166_1" function="internal" bidi=":1002463166_0">
        <lane id=":1002463166_1_0" index="0" allow="rail rail_electric rail_fast" speed="7.66" length="23.54" shape="3520.35,649.78 3511.83,647.65 3508.78,647.46 3511.19,649.23 3519.07,652.96"/>
    </edge>
    <edge id=":1002463166_2" function="internal">
        <lane id=":1002463166_2_0" index="0" allow="rail rail_electric rail_fast" speed="44.44" length="37.90" shape="3484.47,637.58 3491.30,640.21 3502.29,643.99 3513.34,647.62 3520.35,649.78"/>
    </edge>
    <edge id=":1002463166_3" function="internal">
        <lane id=":1002463166_3_0" index="0" allow="rail rail_electric rail_fast" speed="44.44" length="37.86" shape="3484.47,637.58 3519.07,652.96"/>
    </edge>
    <edge id=":1002463173_0" function="internal">
        <lane id=":1002463173_0_0" index="0" allow="rail rail_electric rail_fast" speed="0.10" length="0.10" shape="3657.66,1026.46 3657.66,1026.46"/>
    </edge>
    <edge id=":1002463203_0" function="internal">
        <lane id=":1002463203_0_0" index="0" allow="rail rail_electric rail_fast" speed="44.44" length="27.28" shape="3415.42,684.20 3412.48,679.37 3407.98,672.79 3403.38,666.27 3400.11,661.63"/>
    </edge>
    <edge id=":1002463203_1" function="internal">
        <lane id=":1002463203_1_0" index="0" allow="rail rail_electric rail_fast" speed="44.44" length="27.32" shape="3415.42,684.20 3403.04,659.85"/>
    </edge>
    <edge id=":1002463203_2" function="internal">
        <lane id=":1002463203_2_0" index="0" allow="rail rail_electric rail_fast" speed="44.44" length="27.27" shape="3415.58,684.09 3400.11,661.63"/>
    </edge>
    <edge id=":1002463203_3" function="internal">
        <lane id=":1002463203_3_0" index="0" allow="rail rail_electric rail_fast" speed="44.44" length="27.30" shape="3415.58,684.09 3412.72,679.21 3409.05,672.12 3405.51,664.96 3403.04,659.85"/>
    </edge>
    <edge id=":1002463213_0" function="internal" bidi=":1002463213_3">
        <lane id=":1002463213_0_0" index="0" allow="rail rail_electric rail_fast" speed="8.33" length="40.77" shape="3390.90,790.72 3390.81,782.94 3390.53,770.33 3390.14,757.73 3389.71,749.97"/>
    </edge>
    <edge id=":1002463213_1" function="internal" bidi=":1002463213_2">
        <lane id=":1002463213_1_0" index="0" allow="rail rail_electric rail_fast" speed="8.33" length="40.75" shape="3394.27,790.46 3389.71,749.97"/>
    </edge>
    <edge id=":1002463213_2" function="internal" bidi=":1002463213_1">
        <lane id=":1002463213_2_0" index="0" allow="rail rail_electric rail_fast" speed="8.33" length="40.75" shape="3389.71,749.97 3394.27,790.46"/>
    </edge>
    <edge id=":1002463213_3" function="internal" bidi=":1002463213_0">
        <lane id=":1002463213_3_0" index="0" allow="rail rail_electric rail_fast" speed="8.33" length="40.77" shape="3389.71,749.97 3390.14,757.73 3390.53,770.33 3390.81,782.94 3390.90,790.72"/>
    </edge>
    <edge id=":1002463239_0" function="internal">
        <lane id=":1002463239_0_0" index="0" allow="rail rail_electric rail_fast" speed="44.44" length="41.81" shape="3499.74,662.24 3493.62,657.18 3483.58,648.97 3473.49,640.82 3467.21,635.97"/>
    </edge>
    <edge id=":1002463239_1" function="internal">
        <lane id=":1002463239_1_0" index="0" allow="rail rail_electric rail_fast" speed="44.44" length="41.82" shape="3501.75,659.54 3467.21,635.97"/>
    </edge>
    <edge id=":1002463275_0" function="internal">
        <lane id=":1002463275_0_0" index="0" allow="rail rail_electric rail_fast" speed="0.10" length="0.10" shape="3619.74,739.01 3619.74,739.01"/>
    </edge>
    <edge id=":1002463297_0" function="internal">
        <lane id=":1002463297_0_0" index="0" allow="rail rail_electric rail_fast" speed="44.44" length="29.91" shape="3524.62,641.57 3496.13,632.43"/>
    </edge>
    <edge id=":1002463297_1" function="internal">
        <lane id=":1002463297_1_0" index="0" allow="rail rail_electric rail_fast" speed="44.44" length="29.86" shape="3525.40,638.34 3496.13,632.43"/>
    </edge>
    <edge id=":1002463308_0" function="internal">
        <lane id=":1002463308_0_0" index="0" allow="rail rail_electric rail_fast" speed="44.44" length="2.71" shape="3518.55,877.17 3518.12,876.49 3517.84,876.01 3517.58,875.53 3517.23,874.80"/>
    </edge>
    <edge id=":1002463435_0" function="internal">
        <lane id=":1002463435_0_0" index="0" allow="rail rail_electric rail_fast" speed="0.10" length="0.10" shape="3658.79,706.79 3658.79,706.79"/>
    </edge>
    <edge id=":1002463444_0" function="internal">
        <lane id=":1002463444_0_0" index="0" allow="rail rail_electric rail_fast" speed="44.44" length="2.51" shape="3403.97,630.48 3403.62,629.82 3403.39,629.36 3403.20,628.89 3402.93,628.20"/>
    </edge>
    <edge id=":1002463446_0" function="internal">
        <lane id=":1002463446_0_0" index="0" allow="rail rail_electric rail_fast" speed="44.44" length="2.91" shape="3373.47,485.37 3372.95,482.51"/>
    </edge>
    <edge id=":1002463446_1" function="internal">
        <lane id=":1002463446_1_0" index="0" allow="rail rail_electric rail_fast" speed="44.44" length="2.91" shape="3373.47,485.37 3373.06,482.48"/>
    </edge>
    <edge id=":1002463470_0" function="internal" bidi=":1002463470_5">
        <lane id=":1002463470_0_0" index="0" allow="rail rail_electric rail_fast" speed="44.44" length="20.04" shape="3371.31,622.42 3370.04,618.09 3367.88,613.07 3365.40,608.15 3363.19,604.17"/>
    </edge>
    <edge id=":1002463470_1" function="internal" bidi=":1002463470_4">
        <lane id=":1002463470_1_0" index="0" allow="rail rail_electric rail_fast" speed="44.44" length="20.23" shape="3371.31,622.42 3370.39,617.95 3369.08,612.56 3367.67,607.19 3366.46,602.78"/>
    </edge>
    <edge id=":1002463470_2" function="internal">
        <lane id=":1002463470_2_0" index="0" allow="rail rail_electric rail_fast" speed="44.44" length="23.17" shape="3375.28,623.93 3363.19,604.17"/>
    </edge>
    <edge id=":1002463470_3" function="internal">
        <lane id=":1002463470_3_0" index="0" allow="rail rail_electric rail_fast" speed="44.44" length="22.96" shape="3375.28,623.93 3372.94,619.54 3370.35,613.59 3368.02,607.53 3366.46,602.78"/>
    </edge>
    <edge id=":1002463470_4" function="internal" bidi=":1002463470_1">
        <lane id=":1002463470_4_0" index="0" allow="rail rail_electric rail_fast" speed="44.44" length="20.23" shape="3366.46,602.78 3367.67,607.19 3369.08,612.56 3370.39,617.95 3371.31,622.42"/>
    </edge>
    <edge id=":1002463470_5" function="internal" bidi=":1002463470_0">
        <lane id=":1002463470_5_0" index="0" allow="rail rail_electric rail_fast" speed="44.44" length="20.04" shape="3363.19,604.17 3365.40,608.15 3367.88,613.07 3370.04,618.09 3371.31,622.42"/>
    </edge>
    <edge id=":1002463489_0" function="internal">
        <lane id=":1002463489_0_0" index="0" allow="rail rail_electric rail_fast" speed="4.07" length="5.57" shape="3365.44,426.13 3360.40,423.75"/>
    </edge>
    <edge id=":1002463516_0" function="internal">
        <lane id=":1002463516_0_0" index="0" allow="rail rail_electric rail_fast" speed="0.10" length="0.10" shape="3629.23,729.05 3629.23,729.05"/>
    </edge>
    <edge id=":1002463532_0" function="internal">
        <lane id=":1002463532_0_0" index="0" allow="rail rail_electric rail_fast" speed="44.44" length="2.86" shape="3369.13,489.69 3369.59,492.52"/>
    </edge>
    <edge id=":1002463580_0" function="internal">
        <lane id=":1002463580_0_0" index="0" allow="rail rail_electric rail_fast" speed="44.44" length="2.76" shape="3445.47,613.51 3443.35,611.75"/>
    </edge>
    <edge id=":1002463600_0" function="internal">
        <lane id=":1002463600_0_0" index="0" allow="rail rail_electric rail_fast" speed="44.44" length="35.76" shape="3318.00,457.01 3319.33,463.88 3321.52,474.54 3323.85,485.17 3325.57,491.95"/>
    </edge>
    <edge id=":1002463600_1" function="internal">
        <lane id=":1002463600_1_0" index="0" allow="rail rail_electric rail_fast" speed="44.44" length="35.69" shape="3314.72,457.95 3325.57,491.95"/>
    </edge>
    <edge id=":1002463602_0" function="internal">
        <lane id=":1002463602_0_0" index="0" allow="rail rail_electric rail_fast" speed="44.44" length="2.94" shape="3540.70,918.99 3539.02,916.57"/>
    </edge>
    <edge id=":1002463602_1" function="internal">
        <lane id=":1002463602_1_0" index="0" allow="rail rail_electric rail_fast" speed="44.44" length="2.96" shape="3539.15,916.49 3540.53,919.11"/>
    </edge>
    <edge id=":1002463624_0" function="internal" bidi=":1002463624_3">
        <lane id=":1002463624_0_0" index="0" allow="rail rail_electric rail_fast" speed="44.44" length="37.88" shape="3377.81,659.94 3371.34,622.62"/>
    </edge>
    <edge id=":1002463624_1" function="internal" bidi=":1002463624_2">
        <lane id=":1002463624_1_0" index="0" allow="rail rail_electric rail_fast" speed="44.44" length="37.84" shape="3381.09,659.18 3379.15,652.12 3376.05,640.93 3373.04,629.73 3371.34,622.62"/>
    </edge>
    <edge id=":1002463624_2" function="internal" bidi=":1002463624_1">
        <lane id=":1002463624_2_0" index="0" allow="rail rail_electric rail_fast" speed="44.44" length="37.84" shape="3371.34,622.62 3373.04,629.73 3376.05,640.93 3379.15,652.12 3381.09,659.18"/>
    </edge>
    <edge id=":1002463624_3" function="internal" bidi=":1002463624_0">
        <lane id=":1002463624_3_0" index="0" allow="rail rail_electric rail_fast" speed="44.44" length="37.88" shape="3371.34,622.62 3377.81,659.94"/>
    </edge>
    <edge id=":1002463627_0" function="internal">
        <lane id=":1002463627_0_0" index="0" allow="rail rail_electric rail_fast" speed="0.10" length="0.10" shape="3653.46,1035.23 3653.46,1035.23"/>
    </edge>
    <edge id=":1002463632_0" function="internal">
        <lane id=":1002463632_0_0" index="0" allow="rail rail_electric rail_fast" speed="44.44" length="2.95" shape="3356.35,558.07 3356.04,555.13"/>
    </edge>
    <edge id=":1002463632_1" function="internal">
        <lane id=":1002463632_1_0" index="0" allow="rail rail_electric rail_fast" speed="44.44" length="2.95" shape="3355.95,555.14 3356.35,558.07"/>
    </edge>
    <edge id=":1002463645_0" function="internal">
        <lane id=":1002463645_0_0" index="0" allow="rail rail_electric rail_fast" speed="44.44" length="50.42" shape="3412.67,660.48 3408.57,652.15 3401.82,637.72 3395.23,623.22 3391.57,614.70"/>
    </edge>
    <edge id=":1002463645_1" function="internal">
        <lane id=":1002463645_1_0" index="0" allow="rail rail_electric rail_fast" speed="44.44" length="50.45" shape="3412.67,660.48 3408.97,651.97 3403.15,637.12 3397.61,622.17 3394.74,613.35"/>
    </edge>
    <edge id=":1002463659_0" function="internal">
        <lane id=":1002463659_0_0" index="0" allow="rail rail_electric rail_fast" speed="44.44" length="2.95" shape="3406.69,583.36 3408.42,585.75"/>
    </edge>
    <edge id=":1002463669_0" function="internal">
        <lane id=":1002463669_0_0" index="0" allow="rail rail_electric rail_fast" speed="44.44" length="2.84" shape="3472.36,633.98 3470.05,632.33"/>
    </edge>
    <edge id=":1002463669_1" function="internal">
        <lane id=":1002463669_1_0" index="0" allow="rail rail_electric rail_fast" speed="44.44" length="2.83" shape="3472.40,633.91 3470.05,632.33"/>
    </edge>
    <edge id=":1002463675_0" function="internal">
        <lane id=":1002463675_0_0" index="0" allow="rail rail_electric rail_fast" speed="44.44" length="45.70" shape="3479.25,765.50 3474.07,758.71 3465.21,747.47 3456.24,736.33 3450.72,729.82"/>
    </edge>
    <edge id=":1002463675_1" function="internal">
        <lane id=":1002463675_1_0" index="0" allow="rail rail_electric rail_fast" speed="44.44" length="52.23" shape="3479.25,765.50 3448.86,723.03"/>
    </edge>
    <edge id=":1002463675_2" function="internal">
        <lane id=":1002463675_2_0" index="0" allow="rail rail_electric rail_fast" speed="44.44" length="34.78" shape="3474.49,755.20 3450.72,729.82"/>
    </edge>
    <edge id=":1002463675_3" function="internal">
        <lane id=":1002463675_3_0" index="0" allow="rail rail_electric rail_fast" speed="44.44" length="41.14" shape="3474.49,755.20 3469.49,749.18 3461.52,739.24 3453.63,729.24 3448.86,723.03"/>
    </edge>
    <edge id=":1002463684_0" function="internal">
        <lane id=":1002463684_0_0" index="0" allow="rail rail_electric rail_fast" speed="26.39" length="36.75" shape="3378.67,799.13 3380.26,792.16 3382.65,781.19 3384.92,770.20 3386.14,763.16"/>
    </edge>
    <edge id=":1002463684_1" function="internal">
        <lane id=":1002463684_1_0" index="0" allow="rail rail_electric rail_fast" speed="8.33" length="42.58" shape="3380.62,805.39 3386.14,763.16"/>
    </edge>
    <edge id=":1002463717_0" function="internal">
        <lane id=":1002463717_0_0" index="0" allow="rail rail_electric rail_fast" speed="0.10" length="0.10" shape="3662.45,703.15 3662.45,703.15"/>
    </edge>
    <edge id=":1002463749_0" function="internal">
        <lane id=":1002463749_0_0" index="0" allow="rail rail_electric rail_fast" speed="44.44" length="2.95" shape="3426.38,596.90 3424.18,594.94"/>
    </edge>
    <edge id=":1002463749_1" function="internal">
        <lane id=":1002463749_1_0" index="0" allow="rail rail_electric rail_fast" speed="44.44" length="2.95" shape="3426.41,596.87 3424.18,594.94"/>
    </edge>
    <edge id=":1002463758_0" function="internal">
        <lane id=":1002463758_0_0" index="0" allow="rail" speed="0.10" length="0.10" shape="3595.82,833.67 3595.82,833.67"/>
    </edge>
    <edge id=":1002463955_0" function="internal">
        <lane id=":1002463955_0_0" index="0" allow="rail rail_electric rail_fast" speed="44.44" length="41.21" shape="3456.02,640.39 3428.28,609.92"/>
    </edge>
    <edge id=":1002463955_1" function="internal">
        <lane id=":1002463955_1_0" index="0" allow="rail rail_electric rail_fast" speed="44.44" length="41.23" shape="3458.44,638.03 3452.59,632.79 3443.16,624.17 3433.83,615.45 3428.28,609.92"/>
    </edge>
    <edge id=":1002464023_0" function="internal">
        <lane id=":1002464023_0_0" index="0" allow="rail" speed="0.10" length="0.10" shape="3612.51,820.19 3612.51,820.19"/>
    </edge>
    <edge id=":1002464031_0" function="internal">
        <lane id=":1002464031_0_0" index="0" allow="rail rail_electric rail_fast" speed="0.10" length="0.10" shape="3653.19,713.74 3653.19,713.74"/>
    </edge>
    <edge id=":1002464102_0" function="internal">
        <lane id=":1002464102_0_0" index="0" allow="rail rail_electric rail_fast" speed="44.44" length="52.66" shape="3386.92,612.00 3379.43,559.87"/>
    </edge>
    <edge id=":1002464102_1" function="internal">
        <lane id=":1002464102_1_0" index="0" allow="rail rail_electric rail_fast" speed="44.44" length="52.66" shape="3390.38,611.37 3388.09,602.03 3384.62,585.70 3381.29,569.33 3379.43,559.87"/>
    </edge>
    <edge id=":1002464125_0" function="internal">
        <lane id=":1002464125_0_0" index="0" allow="rail rail_electric rail_fast" speed="33.33" length="27.44" shape="3369.83,649.09 3368.21,643.64 3365.55,636.07 3362.71,628.56 3360.54,623.30"/>
    </edge>
    <edge id=":1002464125_1" function="internal" bidi=":1002464125_2">
        <lane id=":1002464125_1_0" index="0" allow="rail rail_electric rail_fast" speed="22.22" length="38.29" shape="3369.83,649.09 3367.93,641.95 3364.71,630.65 3361.38,619.37 3359.17,612.32"/>
    </edge>
    <edge id=":1002464125_2" function="internal" bidi=":1002464125_1">
        <lane id=":1002464125_2_0" index="0" allow="rail rail_electric rail_fast" speed="22.22" length="38.29" shape="3359.17,612.32 3361.38,619.37 3364.71,630.65 3367.93,641.95 3369.83,649.09"/>
    </edge>
    <edge id=":1002464148_0" function="internal">
        <lane id=":1002464148_0_0" index="0" allow="rail rail_electric rail_fast" speed="0.10" length="0.10" shape="3612.27,746.85 3612.27,746.85"/>
    </edge>
    <edge id=":1002464192_0" function="internal">
        <lane id=":1002464192_0_0" index="0" allow="rail rail_electric rail_fast" speed="8.33" length="0.18" shape="3361.64,779.66 3361.61,779.84"/>
    </edge>
    <edge id=":1002464192_1" function="internal">
        <lane id=":1002464192_1_0" index="0" allow="rail rail_electric rail_fast" speed="26.39" length="0.18" shape="3361.61,779.84 3361.63,779.66"/>
    </edge>
    <edge id=":1002464309_0" function="internal">
        <lane id=":1002464309_0_0" index="0" allow="rail rail_electric rail_fast" speed="0.10" length="0.10" shape="3656.13,710.09 3656.13,710.09"/>
    </edge>
    <edge id=":1002464314_0" function="internal" bidi=":1002464314_7">
        <lane id=":1002464314_0_0" index="0" allow="rail rail_electric rail_fast" speed="22.22" length="30.95" shape="3384.23,705.41 3382.94,699.32 3380.65,690.37 3378.25,681.45 3376.62,675.42"/>
    </edge>
    <edge id=":1002464314_1" function="internal" bidi=":1002464314_5">
        <lane id=":1002464314_1_0" index="0" allow="rail rail_electric rail_fast" speed="33.33" length="30.96" shape="3384.23,705.41 3379.93,674.76"/>
    </edge>
    <edge id=":1002464314_2" function="internal" bidi=":1002464314_6">
        <lane id=":1002464314_2_0" index="0" allow="rail rail_electric rail_fast" speed="15.28" length="30.95" shape="3384.40,705.37 3376.62,675.42"/>
    </edge>
    <edge id=":1002464314_3" function="internal" bidi=":1002464314_4">
        <lane id=":1002464314_3_0" index="0" allow="rail rail_electric rail_fast" speed="26.39" length="30.94" shape="3384.40,705.37 3383.26,699.24 3381.95,690.11 3380.74,680.95 3379.93,674.76"/>
    </edge>
    <edge id=":1002464314_4" function="internal" bidi=":1002464314_3">
        <lane id=":1002464314_4_0" index="0" allow="rail rail_electric rail_fast" speed="26.39" length="30.94" shape="3379.93,674.76 3380.74,680.95 3381.95,690.11 3383.26,699.24 3384.40,705.37"/>
    </edge>
    <edge id=":1002464314_5" function="internal" bidi=":1002464314_1">
        <lane id=":1002464314_5_0" index="0" allow="rail rail_electric rail_fast" speed="33.33" length="30.96" shape="3379.93,674.76 3384.23,705.41"/>
    </edge>
    <edge id=":1002464314_6" function="internal" bidi=":1002464314_2">