<?xml version="1.0" encoding="UTF-8"?>

<!-- generated on 2022-03-06 12:42:20 by Eclipse SUMO duarouter Version 1.12.0
<configuration xmlns:xsi="http://www.w3.org/2001/XMLSchema-instance" xsi:noNamespaceSchemaLocation="http://sumo.dlr.de/xsd/duarouterConfiguration.xsd">

    <input>
        <net-file value="C:\Users\simon\Sumo\2022-03-06-12-41-45\osm.net.xml"/>
        <route-files value="C:\Users\simon\Sumo\2022-03-06-12-41-45\osm.passenger.trips.xml"/>
    </input>

    <output>
        <output-file value="C:\Users\simon\Sumo\2022-03-06-12-41-45\osm.passenger.trips.xml.tmp"/>
        <write-trips value="true"/>
    </output>

    <time>
        <begin value="0"/>
        <end value="3600"/>
    </time>

    <report>
        <no-warnings value="true"/>
        <ignore-errors value="true"/>
        <no-step-log value="true"/>
    </report>

</configuration>
-->

<routes xmlns:xsi="http://www.w3.org/2001/XMLSchema-instance" xsi:noNamespaceSchemaLocation="http://sumo.dlr.de/xsd/routes_file.xsd">
    <vType id="veh_passenger" vClass="passenger"/>
    <trip id="veh0" type="veh_passenger" depart="0.00" departLane="best" from="27681238#0" to="-134989601"/>
    <trip id="veh1" type="veh_passenger" depart="0.84" departLane="best" from="-436156035" to="-442926684"/>
    <trip id="veh2" type="veh_passenger" depart="1.68" departLane="best" from="33113130#2" to="35286495#0"/>
    <trip id="veh3" type="veh_passenger" depart="2.52" departLane="best" departSpeed="max" from="70913334#0" to="-27386151#9"/>
    <trip id="veh4" type="veh_passenger" depart="3.36" departLane="best" from="-93720123#1" to="-135207220#3"/>
    <trip id="veh5" type="veh_passenger" depart="4.20" departLane="best" departSpeed="max" from="-33728351" to="27386324#0"/>
    <trip id="veh7" type="veh_passenger" depart="5.88" departLane="best" departSpeed="max" from="283174677#0" to="27674456#0"/>
    <trip id="veh8" type="veh_passenger" depart="6.72" departLane="best" departSpeed="max" from="-33757100" to="305482857"/>
    <trip id="veh9" type="veh_passenger" depart="7.56" departLane="best" from="43418075#4" to="-108358756#10"/>
    <trip id="veh10" type="veh_passenger" depart="8.40" departLane="best" from="431505956#2" to="37930437#0"/>
    <trip id="veh11" type="veh_passenger" depart="9.24" departLane="best" from="-553460094#1" to="-31970640#2"/>
    <trip id="veh12" type="veh_passenger" depart="10.08" departLane="best" from="94602961#0" to="104279324"/>
    <trip id="veh13" type="veh_passenger" depart="10.92" departLane="best" departSpeed="max" from="-25627415#3" to="-27601564#2"/>
    <trip id="veh14" type="veh_passenger" depart="11.76" departLane="best" from="49303952" to="305647816"/>
    <trip id="veh15" type="veh_passenger" depart="12.60" departLane="best" from="43418075#0" to="42264604"/>
    <trip id="veh16" type="veh_passenger" depart="13.44" departLane="best" from="-746434519#2" to="27815384"/>
    <trip id="veh17" type="veh_passenger" depart="14.28" departLane="best" from="520750117" to="28519926"/>
    <trip id="veh18" type="veh_passenger" depart="15.12" departLane="best" departSpeed="max" from="31909891#0" to="-179476011#2"/>
    <trip id="veh19" type="veh_passenger" depart="15.96" departLane="best" departSpeed="max" from="-35217955#2" to="-87222111#0"/>
    <trip id="veh20" type="veh_passenger" depart="16.80" departLane="best" departSpeed="max" from="-22386057#6" to="-452139719#2"/>
    <trip id="veh21" type="veh_passenger" depart="17.64" departLane="best" departSpeed="max" from="-267279602" to="-80446532#2"/>
    <trip id="veh22" type="veh_passenger" depart="18.48" departLane="best" from="27603102#3" to="134727285"/>
    <trip id="veh23" type="veh_passenger" depart="19.32" departLane="best" departSpeed="max" from="-74136303" to="-397705250"/>
    <trip id="veh24" type="veh_passenger" depart="20.16" departLane="best" from="-431432703" to="94522261"/>
    <trip id="veh25" type="veh_passenger" depart="21.00" departLane="best" departSpeed="max" from="283174677#0" to="30605772"/>
    <trip id="veh26" type="veh_passenger" depart="21.84" departLane="best" from="-305482861#1" to="42264604"/>
    <trip id="veh27" type="veh_passenger" depart="22.68" departLane="best" departSpeed="max" from="-29727006#2" to="134989573#5"/>
    <trip id="veh29" type="veh_passenger" depart="24.36" departLane="best" departSpeed="max" from="19803517#0" to="35547360#0"/>
    <trip id="veh30" type="veh_passenger" depart="25.20" departLane="best" departSpeed="max" from="49302763#0" to="464574460#7"/>
    <trip id="veh31" type="veh_passenger" depart="26.04" departLane="best" departSpeed="max" from="-35217955#2" to="-136641086#0"/>
    <trip id="veh32" type="veh_passenger" depart="26.88" departLane="best" from="-50827068#1" to="-714739745"/>
    <trip id="veh33" type="veh_passenger" depart="27.72" departLane="best" departSpeed="max" from="-33532202#1" to="94545457"/>
    <trip id="veh34" type="veh_passenger" depart="28.56" departLane="best" from="609003150#0" to="-96095208#1"/>
    <trip id="veh35" type="veh_passenger" depart="29.40" departLane="best" from="28519921#0" to="134989603#3"/>
    <trip id="veh36" type="veh_passenger" depart="30.24" departLane="best" from="866030036#1" to="201725670#0"/>
    <trip id="veh37" type="veh_passenger" depart="31.08" departLane="best" departSpeed="max" from="-428724035" to="-50457867"/>
    <trip id="veh38" type="veh_passenger" depart="31.92" departLane="best" departSpeed="max" from="198152773" to="-622473972"/>
    <trip id="veh40" type="veh_passenger" depart="33.60" departLane="best" departSpeed="max" from="99861283#0" to="27549448#0"/>
    <trip id="veh41" type="veh_passenger" depart="34.44" departLane="best" from="-24980035" to="-184818318#1"/>
    <trip id="veh42" type="veh_passenger" depart="35.28" departLane="best" departSpeed="max" from="-27386324#2" to="314810601#0"/>
    <trip id="veh43" type="veh_passenger" depart="36.12" departLane="best" from="40716735#2" to="136641086#6"/>
    <trip id="veh44" type="veh_passenger" depart="36.96" departLane="best" from="98779324#0" to="27602527#1"/>
    <trip id="veh45" type="veh_passenger" depart="37.80" departLane="best" from="94721105#2" to="70913333#0"/>
    <trip id="veh46" type="veh_passenger" depart="38.64" departLane="best" from="-108358756#7" to="42029069#0"/>
    <trip id="veh47" type="veh_passenger" depart="39.48" departLane="best" from="30596346#3" to="27602813#0"/>
    <trip id="veh48" type="veh_passenger" depart="40.32" departLane="best" from="-431432703" to="32846420#0"/>
    <trip id="veh49" type="veh_passenger" depart="41.16" departLane="best" from="-27582119#3" to="157304012#0"/>
    <trip id="veh50" type="veh_passenger" depart="42.00" departLane="best" from="10426675" to="94603009#1"/>
    <trip id="veh51" type="veh_passenger" depart="42.84" departLane="best" from="609003150#0" to="-640280592"/>
    <trip id="veh52" type="veh_passenger" depart="43.68" departLane="best" from="134989591#1" to="-35217953#0"/>
    <trip id="veh53" type="veh_passenger" depart="44.52" departLane="best" from="8428676#0" to="739158041"/>
    <trip id="veh54" type="veh_passenger" depart="45.37" departLane="best" departSpeed="max" from="-475470683" to="32787503#0"/>
    <trip id="veh55" type="veh_passenger" depart="46.21" departLane="best" from="25640514#2" to="-31909904"/>
    <trip id="veh56" type="veh_passenger" depart="47.05" departLane="best" from="35857085#0" to="27603102#1"/>
    <trip id="veh58" type="veh_passenger" depart="48.73" departLane="best" from="-104278989#1" to="-99861283#2"/>
    <trip id="veh59" type="veh_passenger" depart="49.57" departLane="best" from="-128956075#1" to="914179038"/>
    <trip id="veh60" type="veh_passenger" depart="50.41" departLane="best" from="622473971" to="54932400#0"/>
    <trip id="veh61" type="veh_passenger" depart="51.25" departLane="best" departSpeed="max" from="-49303773#4" to="-19803517#2"/>
    <trip id="veh62" type="veh_passenger" depart="52.09" departLane="best" from="622473970#1" to="94602944"/>
    <trip id="veh63" type="veh_passenger" depart="52.93" departLane="best" departSpeed="max" from="-229108570#2" to="25581204#3"/>
    <trip id="veh64" type="veh_passenger" depart="53.77" departLane="best" from="-190192157#0" to="4538163#0"/>
    <trip id="veh65" type="veh_passenger" depart="54.61" departLane="best" from="35964674#0" to="-305482861#3"/>
    <trip id="veh66" type="veh_passenger" depart="55.45" departLane="best" from="120517467#0" to="27684083#2"/>
    <trip id="veh67" type="veh_passenger" depart="56.29" departLane="best" departSpeed="max" from="-428724035" to="74136303"/>
    <trip id="veh68" type="veh_passenger" depart="57.13" departLane="best" from="-94721106#0" to="-402991388#1"/>
    <trip id="veh69" type="veh_passenger" depart="57.97" departLane="best" from="146343280" to="42264604"/>
    <trip id="veh70" type="veh_passenger" depart="58.81" departLane="best" departSpeed="max" from="-31970641" to="-95094994#2"/>
    <trip id="veh71" type="veh_passenger" depart="59.65" departLane="best" from="98779227" to="33532202#0"/>
    <trip id="veh72" type="veh_passenger" depart="60.49" departLane="best" from="-96095212#2" to="27601564#0"/>
    <trip id="veh73" type="veh_passenger" depart="61.33" departLane="best" from="-27602296#5" to="-442926684"/>
    <trip id="veh74" type="veh_passenger" depart="62.17" departLane="best" departSpeed="max" from="-54932400#1" to="305482855"/>
    <trip id="veh75" type="veh_passenger" depart="63.01" departLane="best" from="-35312340" to="-436156031"/>
    <trip id="veh76" type="veh_passenger" depart="63.85" departLane="best" from="-19802501" to="31909900#1"/>
    <trip id="veh77" type="veh_passenger" depart="64.69" departLane="best" departSpeed="max" from="-35217955#2" to="87230821#1"/>
    <trip id="veh78" type="veh_passenger" depart="65.53" departLane="best" departSpeed="max" from="519672051#0" to="-24747539#1"/>
    <trip id="veh79" type="veh_passenger" depart="66.37" departLane="best" from="-35695121#1" to="35020826#0"/>
    <trip id="veh80" type="veh_passenger" depart="67.21" departLane="best" departSpeed="max" from="-33728118#2" to="-30606055#0"/>
    <trip id="veh81" type="veh_passenger" depart="68.05" departLane="best" from="897627849#5" to="28342631#0"/>
    <trip id="veh82" type="veh_passenger" depart="68.89" departLane="best" from="115953540#0" to="49303772#2"/>
    <trip id="veh83" type="veh_passenger" depart="69.73" departLane="best" from="43418075#0" to="-35312507#5"/>
    <trip id="veh84" type="veh_passenger" depart="70.57" departLane="best" from="-25640514#1" to="144968188#0"/>
    <trip id="veh85" type="veh_passenger" depart="71.41" departLane="best" from="-94721106#2" to="22384595#8"/>
    <trip id="veh86" type="veh_passenger" depart="72.25" departLane="best" departSpeed="max" from="330757768#0" to="35217955#0"/>
    <trip id="veh87" type="veh_passenger" depart="73.09" departLane="best" from="95095004#0" to="-27601567#1"/>
    <trip id="veh88" type="veh_passenger" depart="73.93" departLane="best" departSpeed="max" from="-89370395#1" to="10700461"/>
    <trip id="veh89" type="veh_passenger" depart="74.77" departLane="best" from="520750117" to="-50827068#7"/>
    <trip id="veh90" type="veh_passenger" depart="75.61" departLane="best" from="-30808995#7" to="190192157#8"/>
    <trip id="veh91" type="veh_passenger" depart="76.45" departLane="best" from="-93720123#1" to="-80446532#2"/>
    <trip id="veh93" type="veh_passenger" depart="78.13" departLane="best" departSpeed="max" from="-97804890#4" to="70913333#0"/>
    <trip id="veh94" type="veh_passenger" depart="78.97" departLane="best" from="184818318#0" to="-190192177#4"/>
    <trip id="veh95" type="veh_passenger" depart="79.81" departLane="best" departSpeed="max" from="99861283#0" to="560703491#0"/>
    <trip id="veh96" type="veh_passenger" depart="80.65" departLane="best" from="94603096" to="89388368#0"/>
    <trip id="veh97" type="veh_passenger" depart="81.49" departLane="best" departSpeed="max" from="496298909#0" to="-330757768#3"/>
    <trip id="veh98" type="veh_passenger" depart="82.33" departLane="best" from="134989556#0" to="-42029914#5"/>
    <trip id="veh99" type="veh_passenger" depart="83.17" departLane="best" from="-887914950#2" to="-19803517#2"/>
    <trip id="veh100" type="veh_passenger" depart="84.01" departLane="best" from="-746434519#5" to="96095212#0"/>
    <trip id="veh101" type="veh_passenger" depart="84.85" departLane="best" departSpeed="max" from="-428724035" to="49303772#1"/>
    <trip id="veh102" type="veh_passenger" depart="85.69" departLane="best" from="104278989#0" to="136641146#4"/>
    <trip id="veh103" type="veh_passenger" depart="86.53" departLane="best" from="94602961#0" to="97804890#3"/>
    <trip id="veh105" type="veh_passenger" depart="88.21" departLane="best" from="-28050002" to="-87230821#0"/>
    <trip id="veh106" type="veh_passenger" depart="89.05" departLane="best" from="94603096" to="29727006#0"/>
    <trip id="veh107" type="veh_passenger" depart="89.89" departLane="best" departSpeed="max" from="-144968188#1" to="299326442"/>
    <trip id="veh108" type="veh_passenger" depart="90.73" departLane="best" from="134989595#2" to="658509487"/>
    <trip id="veh109" type="veh_passenger" depart="91.57" departLane="best" departSpeed="max" from="-28289874" to="94603075"/>
    <trip id="veh110" type="veh_passenger" depart="92.41" departLane="best" departSpeed="max" from="-22386057#6" to="-35312436#3"/>
    <trip id="veh111" type="veh_passenger" depart="93.25" departLane="best" from="24751106#0" to="35286495#0"/>
    <trip id="veh112" type="veh_passenger" depart="94.09" departLane="best" departSpeed="max" from="-35547360#2" to="-299326440#1"/>
    <trip id="veh113" type="veh_passenger" depart="94.93" departLane="best" departSpeed="max" from="70913334#0" to="-50457867"/>
    <trip id="veh114" type="veh_passenger" depart="95.77" departLane="best" departSpeed="max" from="24748954#0" to="30808995#0"/>
    <trip id="veh115" type="veh_passenger" depart="96.61" departLane="best" from="-897627849#9" to="299326440#3"/>
    <trip id="veh117" type="veh_passenger" depart="98.29" departLane="best" from="-32997890" to="40716736"/>
    <trip id="veh118" type="veh_passenger" depart="99.13" departLane="best" from="-35857079" to="134989603#3"/>
    <trip id="veh119" type="veh_passenger" depart="99.97" departLane="best" from="305482861#2" to="-887914950#2"/>
    <trip id="veh120" type="veh_passenger" depart="100.81" departLane="best" from="-50827289#3" to="4496451#0"/>
    <trip id="veh121" type="veh_passenger" depart="101.65" departLane="best" from="-206490679" to="201725670#0"/>
    <trip id="veh122" type="veh_passenger" depart="102.49" departLane="best" departSpeed="max" from="99861283#0" to="97804890#3"/>
    <trip id="veh123" type="veh_passenger" depart="103.33" departLane="best" from="-206490679" to="-42029914#4"/>
    <trip id="veh124" type="veh_passenger" depart="104.17" departLane="best" departSpeed="max" from="-428724035" to="93720121#1"/>
    <trip id="veh125" type="veh_passenger" depart="105.01" departLane="best" from="633742323#0" to="74320145"/>
    <trip id="veh126" type="veh_passenger" depart="105.85" departLane="best" departSpeed="max" from="-74136303" to="-32997890"/>
    <trip id="veh127" type="veh_passenger" depart="106.69" departLane="best" from="45857097#0" to="387636807"/>
    <trip id="veh128" type="veh_passenger" depart="107.53" departLane="best" departSpeed="max" from="267279601" to="96095213#2"/>
    <trip id="veh129" type="veh_passenger" depart="108.37" departLane="best" from="28342632#3" to="-108358756#3"/>
    <trip id="veh130" type="veh_passenger" depart="109.21" departLane="best" from="300950243#1" to="94522275#0"/>
    <trip id="veh131" type="veh_passenger" depart="110.05" departLane="best" departSpeed="max" from="-27602812#8" to="-28242206#2"/>
    <trip id="veh132" type="veh_passenger" depart="110.89" departLane="best" from="-27386324#0" to="27815391#0"/>
    <trip id="veh133" type="veh_passenger" depart="111.73" departLane="best" from="-436156031" to="30596346#0"/>
    <trip id="veh134" type="veh_passenger" depart="112.57" departLane="best" from="32846420#1" to="-39193487#17"/>
    <trip id="veh135" type="veh_passenger" depart="113.41" departLane="best" from="27603102#0" to="-658451348"/>
    <trip id="veh136" type="veh_passenger" depart="114.25" departLane="best" from="134989561#4" to="87230821#1"/>
    <trip id="veh137" type="veh_passenger" depart="115.09" departLane="best" from="49303772#5" to="-27582122#8"/>
    <trip id="veh138" type="veh_passenger" depart="115.93" departLane="best" from="-94721106#2" to="-800112126"/>
    <trip id="veh139" type="veh_passenger" depart="116.77" departLane="best" departSpeed="max" from="-104279324" to="464574459#1"/>
    <trip id="veh140" type="veh_passenger" depart="117.61" departLane="best" from="27674453" to="-622473970#0"/>
    <trip id="veh141" type="veh_passenger" depart="118.45" departLane="best" from="348347273#0" to="27815384"/>
    <trip id="veh142" type="veh_passenger" depart="119.29" departLane="best" departSpeed="max" from="-95094994#4" to="-110340725"/>
    <trip id="veh143" type="veh_passenger" depart="120.13" departLane="best" from="-22384595#4" to="746434519#0"/>
    <trip id="veh145" type="veh_passenger" depart="121.81" departLane="best" from="460159690" to="299326440#0"/>
    <trip id="veh146" type="veh_passenger" depart="122.65" departLane="best" departSpeed="max" from="-27815384" to="-305482861#2"/>
    <trip id="veh147" type="veh_passenger" depart="123.49" departLane="best" departSpeed="max" from="-49303773#4" to="87220783"/>
    <trip id="veh148" type="veh_passenger" depart="124.33" departLane="best" from="420302482#0" to="70913333#0"/>
    <trip id="veh149" type="veh_passenger" depart="125.17" departLane="best" departSpeed="max" from="73161221#0" to="-397705250"/>
    <trip id="veh152" type="veh_passenger" depart="127.69" departLane="best" departSpeed="max" from="-89370429#1" to="30808995#3"/>
    <trip id="veh153" type="veh_passenger" depart="128.53" departLane="best" from="-28050002" to="914179039"/>
    <trip id="veh154" type="veh_passenger" depart="129.37" departLane="best" from="53620033" to="95094994#3"/>
    <trip id="veh155" type="veh_passenger" depart="130.21" departLane="best" from="436156035" to="74320151"/>
    <trip id="veh156" type="veh_passenger" depart="131.05" departLane="best" from="-134989555#3" to="43418075#2"/>
    <trip id="veh157" type="veh_passenger" depart="131.89" departLane="best" from="-539627094#1" to="93720105#0"/>
    <trip id="veh158" type="veh_passenger" depart="132.73" departLane="best" departSpeed="max" from="42265219" to="712687104#2"/>
    <trip id="veh159" type="veh_passenger" depart="133.57" departLane="best" from="436156035" to="-70913334#2"/>
    <trip id="veh160" type="veh_passenger" depart="134.42" departLane="best" from="397705237" to="-27681237#9"/>
    <trip id="veh161" type="veh_passenger" depart="135.26" departLane="best" from="557814529" to="705286368#0"/>
    <trip id="veh162" type="veh_passenger" depart="136.10" departLane="best" departSpeed="max" from="107632017#0" to="-897627849#4"/>
    <trip id="veh163" type="veh_passenger" depart="136.94" departLane="best" from="42029914#6" to="-446119933"/>
    <trip id="veh164" type="veh_passenger" depart="137.78" departLane="best" from="-134989549#9" to="-35862688"/>
    <trip id="veh165" type="veh_passenger" depart="138.62" departLane="best" departSpeed="max" from="-51080602" to="712687104#2"/>
    <trip id="veh166" type="veh_passenger" depart="139.46" departLane="best" from="94603062" to="-80446534"/>
    <trip id="veh167" type="veh_passenger" depart="140.30" departLane="best" from="28008098#0" to="134989618"/>
    <trip id="veh168" type="veh_passenger" depart="141.14" departLane="best" from="95094994#1" to="27602813#0"/>
    <trip id="veh169" type="veh_passenger" depart="141.98" departLane="best" from="93720113" to="-28242206#2"/>
    <trip id="veh170" type="veh_passenger" depart="142.82" departLane="best" from="94603025" to="-70913334#2"/>
    <trip id="veh171" type="veh_passenger" depart="143.66" departLane="best" departSpeed="max" from="-27386324#2" to="157304012#0"/>
    <trip id="veh172" type="veh_passenger" depart="144.50" departLane="best" departSpeed="max" from="330757768#0" to="-95095002"/>
    <trip id="veh173" type="veh_passenger" depart="145.34" departLane="best" from="25627462#4" to="27582122#0"/>
    <trip id="veh174" type="veh_passenger" depart="146.18" departLane="best" from="-80446534" to="28342745#0"/>
    <trip id="veh175" type="veh_passenger" depart="147.02" departLane="best" from="-397705258" to="394162166"/>
    <trip id="veh176" type="veh_passenger" depart="147.86" departLane="best" departSpeed="max" from="-104279324" to="89388368#0"/>
    <trip id="veh177" type="veh_passenger" depart="148.70" departLane="best" from="144968179#0" to="42029069#0"/>
    <trip id="veh179" type="veh_passenger" depart="150.38" departLane="best" from="30173919#0" to="10306683"/>
    <trip id="veh180" type="veh_passenger" depart="151.22" departLane="best" departSpeed="max" from="-50827065#1" to="633742327#0"/>
    <trip id="veh182" type="veh_passenger" depart="152.90" departLane="best" departSpeed="max" from="-49303773#4" to="135207216#2"/>
    <trip id="veh183" type="veh_passenger" depart="153.74" departLane="best" departSpeed="max" from="-89370395#1" to="-87222122#2"/>
    <trip id="veh184" type="veh_passenger" depart="154.58" departLane="best" from="-27602302#0" to="135572695#2"/>
    <trip id="veh185" type="veh_passenger" depart="155.42" departLane="best" from="74320149#0" to="30606656#0"/>
    <trip id="veh186" type="veh_passenger" depart="156.26" departLane="best" from="-480300618#1" to="27684083#2"/>
    <trip id="veh187" type="veh_passenger" depart="157.10" departLane="best" from="-10426673" to="-866030036#0"/>
    <trip id="veh188" type="veh_passenger" depart="157.94" departLane="best" from="-95095002" to="29727006#0"/>
    <trip id="veh189" type="veh_passenger" depart="158.78" departLane="best" from="28342745#0" to="22384595#4"/>
    <trip id="veh190" type="veh_passenger" depart="159.62" departLane="best" from="-97804890#0" to="-42029914#5"/>
    <trip id="veh191" type="veh_passenger" depart="160.46" departLane="best" from="115953541#0" to="87222117#0"/>
    <trip id="veh192" type="veh_passenger" depart="161.30" departLane="best" from="420302482#0" to="-33113130#1"/>
    <trip id="veh193" type="veh_passenger" depart="162.14" departLane="best" departSpeed="max" from="-229108570#2" to="27601328"/>
    <trip id="veh194" type="veh_passenger" depart="162.98" departLane="best" from="27602528#0" to="104279324"/>
    <trip id="veh195" type="veh_passenger" depart="163.82" departLane="best" from="4496447#0" to="4496450#3"/>
    <trip id="veh196" type="veh_passenger" depart="164.66" departLane="best" from="305482863" to="-442926684"/>
    <trip id="veh198" type="veh_passenger" depart="166.34" departLane="best" departSpeed="max" from="496298909#0" to="-24751258#1"/>
    <trip id="veh199" type="veh_passenger" depart="167.18" departLane="best" from="-89370471#0" to="31909886#5"/>
    <trip id="veh200" type="veh_passenger" depart="168.02" departLane="best" from="-31909886#4" to="364075852#7"/>
    <trip id="veh201" type="veh_passenger" depart="168.86" departLane="best" from="134989576#1" to="-496298909#1"/>
    <trip id="veh202" type="veh_passenger" depart="169.70" departLane="best" from="28519926" to="-107632017#4"/>
    <trip id="veh203" type="veh_passenger" depart="170.54" departLane="best" from="35312394#1" to="464574459#0"/>
    <trip id="veh204" type="veh_passenger" depart="171.38" departLane="best" from="-27386308#7" to="137188635#0"/>
    <trip id="veh205" type="veh_passenger" depart="172.22" departLane="best" from="-305482866#3" to="94603059"/>
    <trip id="veh206" type="veh_passenger" depart="173.06" departLane="best" from="135207223#0" to="-190192177#4"/>
    <trip id="veh207" type="veh_passenger" depart="173.90" departLane="best" departSpeed="max" from="-387636807" to="633742327#0"/>
    <trip id="veh208" type="veh_passenger" depart="174.74" departLane="best" from="10491942#2" to="51080599"/>
    <trip id="veh209" type="veh_passenger" depart="175.58" departLane="best" from="24751258#0" to="94602990"/>
    <trip id="veh210" type="veh_passenger" depart="176.42" departLane="best" departSpeed="max" from="70913334#0" to="30606056"/>
    <trip id="veh211" type="veh_passenger" depart="177.26" departLane="best" from="32846420#3" to="27386308#4"/>
    <trip id="veh212" type="veh_passenger" depart="178.10" departLane="best" from="4538166#0" to="27684083#2"/>
    <trip id="veh213" type="veh_passenger" depart="178.94" departLane="best" from="712687105#0" to="44129718"/>
    <trip id="veh214" type="veh_passenger" depart="179.78" departLane="best" from="120516803" to="-557814530#1"/>
    <trip id="veh215" type="veh_passenger" depart="180.62" departLane="best" departSpeed="max" from="-387636807" to="31970641"/>
    <trip id="veh216" type="veh_passenger" depart="181.46" departLane="best" from="35964674#0" to="27602296#6"/>
    <trip id="veh217" type="veh_passenger" depart="182.30" departLane="best" from="27601564#3" to="-772705476"/>
    <trip id="veh218" type="veh_passenger" depart="183.14" departLane="best" from="-22385351#4" to="-866030035#0"/>
    <trip id="veh219" type="veh_passenger" depart="183.98" departLane="best" from="-43418075#8" to="-96652806#2"/>
    <trip id="veh220" type="veh_passenger" depart="184.82" departLane="best" from="147259718#0" to="-30606656#0"/>
    <trip id="veh221" type="veh_passenger" depart="185.66" departLane="best" from="-35312394#2" to="35964675#0"/>
    <trip id="veh222" type="veh_passenger" depart="186.50" departLane="best" from="31909891#2" to="-22384595#4"/>
    <trip id="veh223" type="veh_passenger" depart="187.34" departLane="best" departSpeed="max" from="-89370429#1" to="27674456#0"/>
    <trip id="veh225" type="veh_passenger" depart="189.02" departLane="best" from="-91219580" to="87222124"/>
    <trip id="veh227" type="veh_passenger" depart="190.70" departLane="best" from="50827289#0" to="45857097#0"/>
    <trip id="veh229" type="veh_passenger" depart="192.38" departLane="best" from="-622473969" to="450022337"/>
    <trip id="veh230" type="veh_passenger" depart="193.22" departLane="best" from="50827068#2" to="94603009#1"/>
    <trip id="veh231" type="veh_passenger" depart="194.06" departLane="best" from="-897627849#4" to="4496447#0"/>
    <trip id="veh232" type="veh_passenger" depart="194.90" departLane="best" from="179476011#1" to="305647816"/>
    <trip id="veh233" type="veh_passenger" depart="195.74" departLane="best" departSpeed="max" from="-33757100" to="-43418075#8"/>
    <trip id="veh234" type="veh_passenger" depart="196.58" departLane="best" from="-96095208#1" to="-135207216#0"/>
    <trip id="veh235" type="veh_passenger" depart="197.42" departLane="best" departSpeed="max" from="-54932399#1" to="35312394#0"/>
    <trip id="veh236" type="veh_passenger" depart="198.26" departLane="best" departSpeed="max" from="-89370395#1" to="-330757768#3"/>
    <trip id="veh237" type="veh_passenger" depart="199.10" departLane="best" from="10968767#3" to="-305482861#2"/>
    <trip id="veh238" type="veh_passenger" depart="199.94" departLane="best" from="27582122#9" to="-135207199#1"/>
    <trip id="veh240" type="veh_passenger" depart="201.62" departLane="best" from="-134989561#3" to="32846420#3"/>
    <trip id="veh241" type="veh_passenger" depart="202.46" departLane="best" departSpeed="max" from="-27602812#8" to="20331091#0"/>
    <trip id="veh242" type="veh_passenger" depart="203.30" departLane="best" from="-136641086#5" to="134989573#2"/>
    <trip id="veh243" type="veh_passenger" depart="204.14" departLane="best" departSpeed="max" from="-33728108#2" to="100873454#0"/>
    <trip id="veh244" type="veh_passenger" depart="204.98" departLane="best" from="35695121#3" to="134989573#2"/>
    <trip id="veh245" type="veh_passenger" depart="205.82" departLane="best" departSpeed="max" from="35312415" to="54932400#0"/>
    <trip id="veh246" type="veh_passenger" depart="206.66" departLane="best" from="-39447057#1" to="-267279601"/>
    <trip id="veh247" type="veh_passenger" depart="207.50" departLane="best" from="-128956075#1" to="27603102#3"/>
    <trip id="veh248" type="veh_passenger" depart="208.34" departLane="best" departSpeed="max" from="99861283#0" to="110711765#0"/>
    <trip id="veh249" type="veh_passenger" depart="209.18" departLane="best" departSpeed="max" from="283174677#0" to="49302771#2"/>
    <trip id="veh250" type="veh_passenger" depart="210.02" departLane="best" from="28342631#0" to="450022337"/>
    <trip id="veh251" type="veh_passenger" depart="210.86" departLane="best" from="94545447#1" to="-386850954#2"/>
    <trip id="veh252" type="veh_passenger" depart="211.70" departLane="best" departSpeed="max" from="-134727285" to="-31909901"/>
    <trip id="veh253" type="veh_passenger" depart="212.54" departLane="best" departSpeed="max" from="-27602300#1" to="35021429"/>
    <trip id="veh254" type="veh_passenger" depart="213.38" departLane="best" from="314810602#0" to="460089700#0"/>
    <trip id="veh255" type="veh_passenger" depart="214.22" departLane="best" from="-300950243#1" to="30596420"/>
    <trip id="veh256" type="veh_passenger" depart="215.06" departLane="best" departSpeed="max" from="35217953#0" to="-28157584#6"/>
    <trip id="veh257" type="veh_passenger" depart="215.90" departLane="best" from="4496450#0" to="94721105#3"/>
    <trip id="veh258" type="veh_passenger" depart="216.74" departLane="best" departSpeed="max" from="-27386324#2" to="-135207193#0"/>
    <trip id="veh259" type="veh_passenger" depart="217.58" departLane="best" departSpeed="max" from="-49303774" to="35286495#0"/>
    <trip id="veh260" type="veh_passenger" depart="218.42" departLane="best" from="94602990" to="134989604#0"/>