<?xml version="1.0" encoding="UTF-8"?>

<!-- generated on 2022-03-06 12:42:10 by Eclipse SUMO polyconvert Version 1.12.0
<configuration xmlns:xsi="http://www.w3.org/2001/XMLSchema-instance" xsi:noNamespaceSchemaLocation="http://sumo.dlr.de/xsd/polyconvertConfiguration.xsd">

    <input>
        <net-file value="osm.net.xml"/>
        <osm-files value="osm_bbox.osm.xml"/>
        <osm.keep-full-type value="true"/>
        <type-file value="C:\Program%20Files%20(x86)\Eclipse\Sumo\data\typemap\osmPolyconvert.typ.xml"/>
    </input>

    <output>
        <output-file value="osm.poly.xml"/>
    </output>

    <processing>
        <poi-layer-offset value="5"/>
    </processing>

    <report>
        <verbose value="true"/>
    </report>

</configuration>
-->

<additional xmlns:xsi="http://www.w3.org/2001/XMLSchema-instance" xsi:noNamespaceSchemaLocation="http://sumo.dlr.de/xsd/additional_file.xsd">
    <location netOffset="-444230.38,-5209790.34" convBoundary="-53452.18,-40933.41,26373.39,11672.34" origBoundary="7.568452,46.667263,8.614059,47.142124" projParameter="+proj=utm +zone=32 +ellps=WGS84 +datum=WGS84 +units=m +no_defs"/>

    <poly id="1001718351" type="leisure.park" color="207,245,201" fill="1" layer="-2.00" shape="3017.677689,469.985781 3000.387600,470.039164 2995.515776,478.350872 3005.901145,490.383587 3009.364163,490.252839 3017.625196,486.334265 3021.581089,486.099130 3024.319130,483.029733 3023.632191,472.389055 3017.677689,469.985781"/>
    <poly id="1001718352" type="leisure.park" color="207,245,201" fill="1" layer="-2.00" shape="3042.332644,497.739899 3034.886956,493.371621 3026.318522,496.892811 3019.013856,498.146753 3017.770307,502.692109 3030.313136,513.016469 3036.134840,511.586761 3040.532337,506.324402 3042.332644,497.739899"/>
    <poly id="1001718353" type="leisure.park" color="207,245,201" fill="1" layer="-2.00" shape="3045.627050,489.731167 3050.763948,478.749902 3049.246907,474.729136 3042.580955,470.053870 3037.850515,471.184943 3030.336879,471.151553 3028.587334,474.323315 3034.257785,489.242964 3045.627050,489.731167"/>
    <poly id="1004677539" type="building.yes" color="255,230,230" fill="1" layer="-1.00" shape="2121.240911,2435.308053 2123.933833,2435.806083 2124.491874,2432.844827 2121.798850,2432.335684 2121.240911,2435.308053"/>
    <poly id="1004677541" type="natural.water" color="181,209,209" fill="1" layer="-4.00" shape="2140.607525,2459.805455 2142.040297,2461.203953 2144.120818,2462.007586 2146.893996,2460.459999 2156.140200,2443.206062 2154.704520,2441.485292 2149.660180,2439.619263 2148.461863,2439.796779 2147.153048,2440.353155 2146.015208,2441.341419 2145.209316,2442.926822 2143.440288,2453.078390 2142.084237,2454.290896 2140.607525,2459.805455"/>
    <poly id="1004677543" type="building.yes" color="255,230,230" fill="1" layer="-1.00" shape="2172.250894,2426.690408 2181.975198,2431.281542 2185.262048,2424.372587 2175.537735,2419.781447 2172.250894,2426.690408"/>
    <poly id="1004677544" type="building.yes" color="255,230,230" fill="1" layer="-1.00" shape="2111.843322,2391.205209 2128.398593,2395.334497 2130.436568,2387.214286 2113.888870,2383.084925 2111.843322,2391.205209"/>
    <poly id="1004677550" type="natural.water" color="181,209,209" fill="1" layer="-4.00" shape="2127.766964,2443.150916 2130.928822,2444.278192 2134.424920,2442.890779 2139.614800,2437.320481 2135.446691,2434.090698 2133.687835,2434.428866 2129.523461,2432.454889 2127.878141,2433.592214 2127.967897,2440.170656 2127.766964,2443.150916"/>
    <poly id="1004677551" type="natural.water" color="181,209,209" fill="1" layer="-4.00" shape="2120.052735,2434.085169 2115.058672,2438.631264 2110.802097,2437.380517 2100.834510,2431.924835 2100.791891,2430.569360 2103.681624,2427.631500 2108.685075,2430.853720 2112.327497,2430.531878 2120.052735,2434.085169"/>
    <poly id="1004919765" type="building.yes" color="255,230,230" fill="1" layer="-1.00" shape="3697.010034,2487.228833 3689.694730,2481.802840 3697.531156,2471.298542 3704.846466,2476.724545 3697.010034,2487.228833"/>
    <poly id="1005860821" type="building.yes" color="255,230,230" fill="1" layer="-1.00" shape="3426.304063,1104.725155 3428.737263,1105.003799 3430.114785,1093.222435 3427.673984,1092.943857 3426.304063,1104.725155"/>
    <poly id="1005860822" type="building.yes" color="255,230,230" fill="1" layer="-1.00" shape="3411.820722,1071.356477 3414.261630,1071.646161 3415.631536,1059.864861 3413.198220,1059.575109 3411.820722,1071.356477"/>
    <poly id="1005860823" type="building.yes" color="255,230,230" fill="1" layer="-1.00" shape="3394.457104,1068.897730 3396.890321,1069.176361 3398.267789,1057.394990 3395.826972,1057.116425 3394.457104,1068.897730"/>
    <poly id="1005860824" type="building.yes" color="255,230,230" fill="1" layer="-1.00" shape="3376.364342,1067.312315 3378.797560,1067.590939 3380.174993,1055.809563 3377.741770,1055.530939 3376.364342,1067.312315"/>
    <poly id="1005860825" type="building.yes" color="255,230,230" fill="1" layer="-1.00" shape="3359.246888,1065.207135 3361.680107,1065.485752 3363.049912,1053.704439 3360.616687,1053.425821 3359.246888,1065.207135"/>
    <poly id="100873415" type="building.yes" color="255,230,230" fill="1" layer="-1.00" shape="3661.315406,1702.224971 3704.214021,1708.328266 3702.598264,1718.966964 3678.751267,1715.752922 3659.838096,1715.651967 3661.315406,1702.224971"/>
    <poly id="100873418" type="amenity.place_of_worship" color="237,199,199" fill="1" layer="-1.00" shape="3622.196119,1791.009609 3619.659480,1796.221889 3621.047256,1796.843185 3620.532403,1798.759232 3635.070476,1804.055114 3638.153096,1803.072313 3640.032435,1799.121636 3622.196119,1791.009609"/>
    <poly id="100873418#1" type="building.chapel" color="255,230,230" fill="1" layer="-1.00" shape="3622.196119,1791.009609 3619.659480,1796.221889 3621.047256,1796.843185 3620.532403,1798.759232 3635.070476,1804.055114 3638.153096,1803.072313 3640.032435,1799.121636 3622.196119,1791.009609"/>
    <poly id="100873419" type="building.yes" color="255,230,230" fill="1" layer="-1.00" shape="3609.124981,1707.939413 3603.105620,1717.883290 3615.516999,1723.153336 3619.756198,1713.747426 3609.124981,1707.939413"/>
    <poly id="100873420" type="building.yes" color="255,230,230" fill="1" layer="-1.00" shape="3515.803118,1794.533396 3521.842302,1784.278072 3533.713859,1791.219725 3533.040305,1792.359226 3535.490969,1793.793565 3531.165543,1801.144291 3524.027374,1796.972765 3522.994751,1798.737782 3515.803118,1794.533396"/>
    <poly id="100873423" type="building.yes" color="255,230,230" fill="1" layer="-1.00" shape="3557.681792,1724.350096 3564.331717,1728.270339 3557.416122,1739.933621 3550.758610,1736.013452 3554.673039,1729.422074 3557.681792,1724.350096"/>
    <poly id="100873424" type="building.yes" color="255,230,230" fill="1" layer="-1.00" shape="3634.829678,1737.631571 3630.589036,1749.471350 3634.131863,1750.729446 3638.364917,1738.889737 3634.829678,1737.631571"/>
    <poly id="100873427" type="building.yes" color="255,230,230" fill="1" layer="-1.00" shape="3603.105620,1717.883290 3598.275650,1729.205927 3614.422545,1736.054650 3619.252540,1724.732026 3615.516999,1723.153336 3603.105620,1717.883290"/>
    <poly id="100873428" type="building.yes" color="255,230,230" fill="1" layer="-1.00" shape="3521.842302,1784.278072 3528.727005,1772.570563 3530.253654,1769.978803 3532.696635,1771.402095 3543.247499,1777.577425 3551.981760,1783.602028 3544.585822,1794.180420 3536.542310,1788.972160 3535.420042,1788.315209 3533.713859,1791.219725 3521.842302,1784.278072"/>
    <poly id="100873433" type="building.yes" color="255,230,230" fill="1" layer="-1.00" shape="3526.949366,1801.047983 3537.332224,1807.124756 3530.701855,1818.385479 3520.319010,1812.308717 3526.949366,1801.047983"/>
    <poly id="100873437" type="building.yes" color="255,230,230" fill="1" layer="-1.00" shape="3664.867435,1737.457105 3637.484717,1727.728345 3634.044892,1737.349502 3634.829678,1737.631571 3638.364917,1738.889737 3640.627750,1739.692295 3640.034501,1741.331188 3660.834415,1748.728250 3664.867435,1737.457105"/>
    <poly id="100873441" type="building.yes" color="255,230,230" fill="1" layer="-1.00" shape="3734.611036,1766.530437 3734.844419,1755.014766 3728.517288,1754.981248 3723.192750,1754.950071 3714.666981,1751.034966 3712.452143,1755.710937 3734.611036,1766.530437"/>
    <poly id="100873442" type="building.yes" color="255,230,230" fill="1" layer="-1.00" shape="3622.950816,1710.807652 3645.341825,1714.278736 3647.542058,1700.145244 3619.332639,1695.769429 3614.754300,1697.687786 3609.124981,1707.939413 3619.756198,1713.747426 3620.916249,1714.381835 3622.950816,1710.807652"/>
    <poly id="100873445" type="building.apartments" color="255,230,230" fill="1" layer="-1.00" shape="3526.949366,1801.047983 3522.994751,1798.737782 3515.803118,1794.533396 3509.172775,1805.794143 3520.319010,1812.308717 3526.949366,1801.047983"/>
    <poly id="100873448" type="building.yes" color="255,230,230" fill="1" layer="-1.00" shape="3546.031725,1818.706429 3573.242051,1814.022008 3571.489545,1803.868502 3569.821075,1804.149879 3546.402536,1808.178642 3544.279174,1808.552931 3546.031725,1818.706429"/>
    <poly id="100873450" type="building.yes" color="255,230,230" fill="1" layer="-1.00" shape="3728.517288,1754.981248 3729.078892,1742.784776 3719.910954,1741.864828 3720.060619,1739.874194 3690.458023,1724.696768 3679.959517,1723.621835 3673.809200,1736.834168 3712.452143,1755.710937 3714.666981,1751.034966 3723.192750,1754.950071 3728.517288,1754.981248"/>
    <poly id="100873452" type="building.yes" color="255,230,230" fill="1" layer="-1.00" shape="3704.214021,1708.328266 3740.280908,1714.036008 3738.272873,1726.723021 3702.246467,1721.292776 3702.598264,1718.966964 3704.214021,1708.328266"/>
    <poly id="100873453" type="building.yes" color="255,230,230" fill="1" layer="-1.00" shape="3620.776364,1786.743349 3633.884835,1792.707470 3665.256490,1806.968909 3663.885191,1809.959359 3640.032435,1799.121636 3622.196119,1791.009609 3616.644716,1788.491084 3628.616059,1757.468181 3631.618687,1758.619879 3620.776364,1786.743349"/>
    <poly id="100873455" type="building.yes" color="255,230,230" fill="1" layer="-1.00" shape="3546.402536,1808.178642 3545.705800,1804.950721 3565.784038,1798.506310 3569.821075,1804.149879 3546.402536,1808.178642"/>
    <poly id="100873456" type="building.yes" color="255,230,230" fill="1" layer="-1.00" shape="3564.331717,1728.270339 3572.439831,1733.044641 3565.658881,1744.473346 3563.772838,1747.657271 3555.664737,1742.882981 3557.416122,1739.933621 3564.331717,1728.270339"/>
    <poly id="100873457" type="building.yes" color="255,230,230" fill="1" layer="-1.00" shape="3740.280908,1714.036008 3754.937217,1716.341607 3753.468802,1725.600922 3752.769020,1725.484796 3750.120338,1742.211626 3750.835307,1742.327618 3749.446558,1751.141695 3735.505204,1748.940988 3736.649527,1741.707170 3735.919368,1741.591312 3738.272873,1726.723021 3740.280908,1714.036008"/>
    <poly id="100873458" type="building.yes" color="255,230,230" fill="1" layer="-1.00" shape="3667.883498,1737.541803 3730.365616,1768.301316 3731.278038,1796.177204 3686.513090,1825.775663 3688.405794,1828.548579 3734.352576,1797.739525 3734.611036,1766.530437 3712.452143,1755.710937 3673.809200,1736.834168 3666.448283,1733.242329 3664.867435,1737.457105 3660.834415,1748.728250 3663.425662,1749.739095 3667.883498,1737.541803"/>
    <poly id="100873459" type="building.yes" color="255,230,230" fill="1" layer="-1.00" shape="3647.542058,1700.145244 3661.315406,1702.224971 3659.838096,1715.651967 3651.979907,1715.987585 3645.341825,1714.278736 3647.542058,1700.145244"/>
    <poly id="100873461" type="building.yes" color="255,230,230" fill="1" layer="-1.00" shape="3565.658881,1744.473346 3573.118400,1748.908825 3573.640659,1747.837339 3576.853140,1749.531731 3581.167718,1740.069562 3572.439831,1733.044641 3565.658881,1744.473346"/>
    <poly id="1008934794" type="leisure.track" color="207,245,201" fill="1" layer="-2.00" shape="2870.956889,1643.724751 2870.758455,1644.471126 2862.486357,1641.833034 2864.186086,1636.527849 2872.458092,1639.154830 2872.221486,1639.879317 2870.956889,1643.724751"/>
    <poly id="1008934794#1" type="sport.long_jump" color="79,230,125" fill="1" layer="-2.00" shape="2870.956889,1643.724751 2870.758455,1644.471126 2862.486357,1641.833034 2864.186086,1636.527849 2872.458092,1639.154830 2872.221486,1639.879317 2870.956889,1643.724751"/>
    <poly id="1008934795" type="leisure.pitch" color="207,245,201" fill="1" layer="-2.00" shape="2847.258382,1642.779878 2850.767983,1650.517016 2848.161900,1651.273712 2846.377122,1651.289602 2844.544301,1651.028081 2842.701510,1650.499923 2840.952109,1649.370802 2835.498568,1643.395809 2834.514829,1641.248538 2834.045384,1639.707932 2833.983982,1637.930309 2834.374112,1635.681894 2835.268075,1633.717946 2842.869921,1637.851185 2847.258382,1642.779878"/>
    <poly id="1008934795#1" type="sport.high_jump" color="79,230,125" fill="1" layer="-2.00" shape="2847.258382,1642.779878 2850.767983,1650.517016 2848.161900,1651.273712 2846.377122,1651.289602 2844.544301,1651.028081 2842.701510,1650.499923 2840.952109,1649.370802 2835.498568,1643.395809 2834.514829,1641.248538 2834.045384,1639.707932 2833.983982,1637.930309 2834.374112,1635.681894 2835.268075,1633.717946 2842.869921,1637.851185 2847.258382,1642.779878"/>
    <poly id="1008934796" type="leisure.pitch" color="207,245,201" fill="1" layer="-2.00" shape="2961.932620,1673.411481 2944.914742,1667.805860 2946.357706,1663.514315 2949.293234,1663.077028 2963.760058,1667.938487 2961.932620,1673.411481"/>
    <poly id="1008934796#1" type="sport.shot_put" color="79,230,125" fill="1" layer="-2.00" shape="2961.932620,1673.411481 2944.914742,1667.805860 2946.357706,1663.514315 2949.293234,1663.077028 2963.760058,1667.938487 2961.932620,1673.411481"/>
    <poly id="1009079454" type="building.retail" color="255,230,230" fill="1" layer="-1.00" shape="2507.355164,2136.869300 2485.940173,2177.792543 2474.602178,2171.970659 2496.637224,2131.597496 2507.355164,2136.869300"/>
    <poly id="1013109320" type="landuse.grass" color="194,194,130" fill="1" layer="-3.00" shape="1942.550531,1656.093282 1953.611897,1664.750642 1918.200106,1674.595692 1872.200072,1685.237105 1873.097300,1684.506586 1882.053404,1681.280241 1899.134057,1676.935598 1914.276151,1672.397408 1921.565008,1668.741685 1942.550531,1656.093282"/>
    <poly id="1013109321" type="building.transportation" color="255,230,230" fill="1" layer="-1.00" shape="1921.930072,1670.472099 1926.357064,1667.831417 1924.999746,1665.565425 1920.565259,1668.217289 1921.930072,1670.472099"/>
    <poly id="101391234" type="building.yes" color="255,230,230" fill="1" layer="-1.00" shape="4108.133075,467.980709 4110.109622,469.886174 4108.935026,471.096637 4109.010953,472.840798 4115.561580,479.207501 4114.432079,480.362003 4114.327721,482.341114 4121.016223,488.839987 4123.099436,489.033050 4123.128123,487.087937 4128.474289,481.607003 4123.571070,476.859664 4123.408693,474.782849 4122.818759,474.210070 4122.075549,473.483033 4122.602657,472.945007 4121.767518,472.129861 4122.829234,471.042629 4120.676336,468.949762 4120.005970,466.988494 4114.405483,461.558181 4108.133075,467.980709"/>
    <poly id="101391337" type="building.office" color="255,230,230" fill="1" layer="-1.00" shape="3915.471012,762.698764 3913.533446,760.904158 3927.065746,746.427493 3936.998868,755.654024 3946.755897,764.726516 3933.223592,779.203137 3915.471012,762.698764"/>
    <poly id="101391371" type="building.yes" color="255,230,230" fill="1" layer="-1.00" shape="3353.415656,2439.327073 3349.490824,2448.963812 3361.898770,2453.988846 3365.831212,2444.352049 3353.415656,2439.327073"/>
    <poly id="101391373" type="building.apartments" color="255,230,230" fill="1" layer="-1.00" shape="4115.854845,541.829567 4109.946272,548.148913 4112.037121,550.097840 4110.983404,551.229458 4110.748079,552.998550 4114.715246,556.687113 4113.563648,557.919602 4113.422566,560.043508 4122.926934,568.885099 4125.997895,565.602169 4127.024082,566.549019 4128.514421,564.957958 4128.111451,562.294216 4128.675953,561.689184 4126.523957,559.696328 4126.362575,558.608606 4124.700691,557.067148 4124.738905,555.344222 4124.770584,553.743602 4122.978501,552.081027 4123.957030,551.038972 4121.866185,549.090041 4121.583524,547.158745 4120.182030,545.859524 4115.854845,541.829567"/>
    <poly id="101391432" type="building.yes" color="255,230,230" fill="1" layer="-1.00" shape="4065.446023,512.516791 4070.294046,507.417994 4075.349498,512.197306 4076.915414,510.561122 4079.489804,511.327802 4082.262634,513.948715 4084.905263,516.448512 4087.013184,514.240830 4094.259296,521.090459 4087.085085,528.632199 4081.600693,523.445405 4080.810236,524.274675 4079.423824,522.964219 4078.384914,524.051260 4076.975518,522.718778 4076.154968,523.581651 4074.270741,521.808756 4074.744956,521.304525 4065.446023,512.516791"/>
    <poly id="101391459" type="building.apartments" color="255,230,230" fill="1" layer="-1.00" shape="4115.854845,541.829567 4112.890883,539.065823 4114.938228,536.880905 4113.643946,535.680775 4113.309363,533.894407 4116.688886,530.275388 4116.373009,527.144122 4124.216084,518.763096 4131.675614,525.699824 4127.573404,530.080830 4127.268839,531.750501 4126.373092,532.702928 4126.763684,533.066282 4125.431410,534.489268 4127.055030,535.997718 4125.406708,537.767967 4124.957140,539.361103 4123.120652,541.333030 4121.878667,542.655211 4121.664776,544.268528 4120.182030,545.859524 4115.854845,541.829567"/>
    <poly id="101391495" type="building.apartments" color="255,230,230" fill="1" layer="-1.00" shape="3377.558317,2480.690030 3395.712434,2482.830519 3397.041634,2471.649673 3378.887483,2469.509180 3377.558317,2480.690030"/>
    <poly id="101391499" type="building.apartments" color="255,230,230" fill="1" layer="-1.00" shape="4158.875647,534.854601 4155.589092,531.682437 4154.264021,533.060899 4150.992847,529.910831 4142.800999,538.372644 4142.756245,540.217875 4143.951384,541.374417 4140.563193,544.871248 4140.544702,547.116337 4141.739743,548.261766 4139.729408,550.335219 4146.409632,556.767510 4151.883347,551.107672 4151.714638,549.175386 4153.581808,547.236542 4152.562928,546.256284 4153.752421,545.012360 4152.496033,543.800780 4154.958096,541.256643 4158.617349,537.479630 4157.437502,536.334066 4158.875647,534.854601"/>
    <poly id="101391572" type="building.apartments" color="255,230,230" fill="1" layer="-1.00" shape="4090.953380,586.499961 4089.230918,584.981266 4087.696081,586.694973 4086.277339,586.907347 4084.357928,587.201868 4083.906278,586.805707 4083.646711,583.162732 4081.549040,581.302782 4082.557169,580.171555 4080.543827,578.399780 4078.678140,580.505338 4075.537195,580.977183 4074.993617,580.492914 4075.145397,576.979726 4073.070703,575.141806 4081.549282,565.599391 4082.758848,566.666888 4082.577127,569.357937 4088.226854,574.343251 4090.679446,571.588012 4091.942568,572.699499 4092.147185,575.264942 4096.947158,579.501930 4090.953380,586.499961"/>
    <poly id="101391588" type="building.apartments" color="255,230,230" fill="1" layer="-1.00" shape="4053.635665,551.261165 4047.215924,545.093435 4045.634834,546.729760 4038.020017,539.416630 4030.762051,546.925828 4036.438692,552.377627 4037.266926,551.525795 4039.457903,553.629415 4038.712453,554.391618 4044.189936,559.656228 4051.658760,551.934056 4052.348217,552.594870 4053.635665,551.261165"/>
    <poly id="101391615" type="building.yes" color="255,230,230" fill="1" layer="-1.00" shape="3846.427370,784.561443 3829.820306,780.950117 3821.551197,810.039759 3834.602449,813.582097 3847.769810,815.634238 3860.441520,816.601609 3868.399137,817.076706 3879.066566,816.439039 3876.090559,786.180670 3860.897211,786.135472 3846.427370,784.561443"/>
    <poly id="101391668" type="building.yes" color="255,230,230" fill="1" layer="-1.00" shape="4059.818827,621.078033 4053.845893,627.842538 4048.825697,622.740646 4045.672443,622.668052 4044.990300,621.973835 4047.664299,619.350013 4042.191859,613.785293 4039.534185,613.919548 4038.476543,612.850738 4047.583502,603.947390 4049.423004,605.820687 4053.166348,605.610313 4053.564923,606.018046 4053.366034,609.353829 4051.196618,611.473151 4053.135640,613.434492 4054.160110,612.436479 4056.022589,614.331805 4059.637181,614.167009 4060.227300,614.762007 4060.201979,616.218097 4060.169931,617.774267 4058.331942,619.568413 4059.818827,621.078033"/>
    <poly id="101391670" type="building.yes" color="255,230,230" fill="1" layer="-1.00" shape="3405.962443,2485.151839 3423.283920,2492.778735 3427.855930,2482.458419 3410.526836,2474.831576 3405.962443,2485.151839"/>
    <poly id="101391680" type="building.yes" color="255,230,230" fill="1" layer="-1.00" shape="3909.917395,791.375622 3912.856556,797.395742 3907.364723,800.055317 3901.214865,803.042930 3895.261633,805.928812 3886.865026,809.991826 3884.404900,797.932897 3885.221765,792.302328 3882.249667,783.381880 3893.436539,771.748437 3898.284814,780.652523 3901.315684,778.025520 3909.917395,791.375622"/>
    <poly id="101391696" type="building.yes" color="255,230,230" fill="1" layer="-1.00" shape="3337.423168,2436.889800 3347.821210,2431.874762 3341.702754,2419.259271 3331.297101,2424.274387 3337.423168,2436.889800"/>
    <poly id="101391730" type="building.apartments" color="255,230,230" fill="1" layer="-1.00" shape="4015.503026,579.554520 4018.160486,576.775241 4010.921754,569.903412 4018.487338,561.958085 4024.293595,567.464313 4023.488057,568.304836 4025.288147,570.011766 4025.995805,569.272116 4031.541555,574.525006 4024.066156,582.358397 4025.016009,583.261439 4022.358646,586.051828 4015.503026,579.554520"/>
    <poly id="101391742" type="building.yes" color="255,230,230" fill="1" layer="-1.00" shape="3884.976214,733.691773 3862.862668,758.056677 3859.499725,754.840888 3857.226126,757.194576 3855.231250,759.279107 3858.594193,762.494894 3854.066173,767.657760 3853.960079,772.037413 3873.961065,772.840805 3898.529840,746.042889 3884.976214,733.691773"/>
    <poly id="101391751" type="building.yes" color="255,230,230" fill="1" layer="-1.00" shape="3093.343301,355.968077 3098.956842,372.188571 3104.305088,387.622360 3121.058673,381.861676 3110.104562,350.207296 3093.343301,355.968077"/>
    <poly id="101391766" type="building.yes" color="255,230,230" fill="1" layer="-1.00" shape="3328.517107,2492.213919 3362.719755,2475.608603 3365.174554,2488.734304 3357.634970,2492.357135 3347.433680,2497.281514 3340.272332,2500.734327 3337.663723,2501.168543 3335.049133,2500.924886 3332.292953,2500.126801 3330.763663,2498.084285 3328.517107,2492.213919"/>
    <poly id="101391792" type="building.yes" color="255,230,230" fill="1" layer="-1.00" shape="4114.327721,482.341114 4113.288605,483.405923 4113.322911,485.606100 4109.286928,489.742045 4107.320459,489.870264 4106.349036,490.856692 4106.088248,493.192794 4105.139518,494.167912 4103.729736,492.790972 4101.154598,495.436134 4102.602555,496.834969 4098.220153,501.318450 4101.284824,504.303582 4101.014191,505.506192 4102.761006,507.202495 4103.536564,506.406697 4104.517188,507.353939 4105.187365,506.670192 4106.865233,508.300414 4108.920860,506.193216 4110.780976,506.065921 4114.726662,502.030783 4115.347268,502.636635 4117.395400,500.540618 4116.598535,499.758481 4117.840914,498.480750 4117.044146,497.709725 4117.955186,496.768277 4118.252733,495.165348 4123.081984,490.522411 4123.099436,489.033050 4121.016223,488.839987 4114.327721,482.341114"/>
    <poly id="101391804" type="building.yes" color="255,230,230" fill="1" layer="-1.00" shape="3880.380644,710.226784 3874.654210,716.478102 3888.881675,729.434559 3884.976214,733.691773 3898.529840,746.042889 3902.834108,741.348778 3911.716649,749.439739 3920.234927,740.152348 3904.698080,725.995865 3888.808932,711.520203 3885.618290,714.993233 3880.380644,710.226784"/>
    <poly id="101768050" type="building.yes" color="255,230,230" fill="1" layer="-1.00" shape="1457.024765,2514.357738 1465.509685,2514.580266 1466.168581,2490.279861 1457.683525,2490.046219 1457.024765,2514.357738"/>
    <poly id="101768106" type="building.yes" color="255,230,230" fill="1" layer="-1.00" shape="1398.158826,2507.483230 1402.542057,2500.152589 1393.325582,2494.680099 1388.942358,2502.010746 1398.158826,2507.483230"/>
    <poly id="101768411" type="building.yes" color="255,230,230" fill="1" layer="-1.00" shape="1362.862390,2486.979327 1376.204716,2494.336664 1380.029959,2487.444546 1366.687724,2480.098313 1362.862390,2486.979327"/>
    <poly id="101768451" type="building.yes" color="255,230,230" fill="1" layer="-1.00" shape="1295.818856,2446.350810 1304.033479,2451.043266 1307.898267,2444.328556 1299.691130,2439.624912 1295.818856,2446.350810"/>
    <poly id="101768678" type="building.yes" color="255,230,230" fill="1" layer="-1.00" shape="1337.312936,2471.843139 1346.143909,2476.674484 1348.205696,2472.932538 1347.335631,2472.462619 1349.389929,2468.731856 1341.421523,2464.381605 1337.312936,2471.843139"/>
    <poly id="101768687" type="building.yes" color="255,230,230" fill="1" layer="-1.00" shape="1322.703322,2497.760590 1327.675277,2489.213114 1315.421330,2482.123752 1310.441690,2490.660196 1322.703322,2497.760590"/>
    <poly id="101768735" type="building.yes" color="255,230,230" fill="1" layer="-1.00" shape="1314.287020,2458.617707 1325.620600,2464.715272 1329.720566,2457.142672 1318.386975,2451.045100 1314.287020,2458.617707"/>
    <poly id="101768752" type="building.yes" color="255,230,230" fill="1" layer="-1.00" shape="1335.938163,2503.329528 1347.337537,2509.159803 1351.329558,2501.410389 1339.937665,2495.568923 1335.938163,2503.329528"/>
    <poly id="1018747598" type="aeroway.helipad" color="grey" fill="1" layer="-2.00" shape="2377.826548,2172.450263 2389.295536,2178.470833 2396.128606,2165.539929 2384.659600,2159.519347 2377.826548,2172.450263"/>
    <poly id="1018749037" type="aeroway.helipad" color="grey" fill="1" layer="-2.00" shape="2361.386327,2209.061667 2369.334214,2213.713527 2374.818123,2203.628684 2366.377409,2199.070154 2361.386327,2209.061667"/>
    <poly id="1023944561" type="amenity.parking" color="184,184,179" fill="1" layer="-1.00" shape="1738.516033,657.443192 1737.822919,648.047398 1747.803934,646.256334 1748.034656,656.600984 1738.516033,657.443192"/>
    <poly id="1023944562" type="amenity.parking" color="184,184,179" fill="1" layer="-1.00" shape="1761.575028,728.027235 1757.111385,719.176912 1768.599706,715.238381 1781.656784,710.885540 1784.534820,720.806067 1761.575028,728.027235"/>
    <poly id="1023944563" type="amenity.parking" color="184,184,179" fill="1" layer="-1.00" shape="1914.059248,803.216756 1913.323542,812.569941 1887.227539,810.672558 1887.652982,801.455544 1908.753790,802.875837 1914.059248,803.216756"/>
    <poly id="1023944564" type="amenity.parking" color="184,184,179" fill="1" layer="-1.00" shape="1563.668248,643.908935 1562.119745,638.210667 1572.394242,635.283046 1588.055003,632.373045 1584.213685,640.165332 1563.668248,643.908935"/>
    <poly id="1023944565" type="amenity.parking" color="184,184,179" fill="1" layer="-1.00" shape="2014.312315,816.023717 2010.828161,804.552665 2024.548186,798.749597 2038.623459,788.542376 2046.047997,798.933164 2035.937114,807.348595 2028.688413,811.370540 2014.312315,816.023717"/>
    <poly id="1023944566" type="amenity.parking" color="184,184,179" fill="1" layer="-1.00" shape="1803.328055,714.856409 1799.682345,704.887274 1819.260591,698.374865 1822.516455,708.080822 1803.328055,714.856409"/>
    <poly id="1023944569" type="amenity.parking" color="184,184,179" fill="1" layer="-1.00" shape="1835.327750,783.825914 1826.079283,780.931371 1833.297157,768.496476 1843.649736,756.599953 1854.632264,747.987358 1862.429977,750.061580 1846.674666,765.141092 1835.327750,783.825914"/>
    <poly id="1023944572" type="building.yes" color="255,230,230" fill="1" layer="-1.00" shape="1877.558318,789.844428 1875.487561,785.995671 1886.840538,779.702515 1891.822535,789.615138 1888.880514,791.053222 1877.558318,789.844428"/>
    <poly id="1026316653" type="building.yes" color="255,230,230" fill="1" layer="-1.00" shape="1607.154662,1738.146414 1603.841751,1742.999907 1611.231689,1747.967036 1615.181243,1742.129749 1607.814187,1737.173521 1607.154662,1738.146414"/>
    <poly id="1026316654" type="building.yes" color="255,230,230" fill="1" layer="-1.00" shape="1472.255414,2203.904003 1468.993456,2190.186257 1478.959025,2187.828039 1482.220962,2201.545790 1472.255414,2203.904003"/>
    <poly id="1026316655" type="building.yes" color="255,230,230" fill="1" layer="-1.00" shape="1501.201983,2258.296402 1496.848315,2245.611063 1485.157196,2249.452011 1489.580044,2262.225619 1501.201983,2258.296402"/>
    <poly id="1026316656" type="building.yes" color="255,230,230" fill="1" layer="-1.00" shape="1500.884955,2294.274084 1494.839200,2283.415717 1504.405729,2278.127187 1510.443776,2288.974520 1500.884955,2294.274084"/>
    <poly id="1026316657" type="building.yes" color="255,230,230" fill="1" layer="-1.00" shape="1427.712726,2462.269408 1438.044156,2466.753760 1440.960164,2460.081154 1430.628725,2455.596797 1427.712726,2462.269408"/>
    <poly id="1026316658" type="building.yes" color="255,230,230" fill="1" layer="-1.00" shape="1433.138217,2480.879577 1436.091470,2474.128832 1435.031568,2473.660637 1425.691403,2469.611771 1422.745854,2476.373564 1433.138217,2480.879577"/>
    <poly id="1026316659" type="building.yes" color="255,230,230" fill="1" layer="-1.00" shape="1418.919056,2489.744912 1415.988306,2496.462119 1426.319585,2500.935338 1429.250445,2494.229248 1418.919056,2489.744912"/>
    <poly id="1026316660" type="building.yes" color="255,230,230" fill="1" layer="-1.00" shape="1727.287291,1664.325595 1726.897641,1654.049056 1717.467413,1654.412637 1717.856978,1664.678063 1727.287291,1664.325595"/>