<?xml version="1.0" encoding="UTF-8"?>
<!-- generated on 2022-03-06 12:42:17.430247 by $Id: ptlines2flows.py v1_3_1+0313-ccb31df3eb jakob.erdmann@dlr.de 2019-09-02 13:26:32 +0200 $ v1_12_0+0000-800cb422fa4
  options: 
-->
<routes xmlns:xsi="http://www.w3.org/2001/XMLSchema-instance" xsi:noNamespaceSchemaLocation="http://sumo.dlr.de/xsd/routes_file.xsd">
    <vType id="pt_bus" vClass="bus"/>
    <vType id="pt_tram" vClass="tram"/>
    <vType id="pt_train" vClass="rail"/>
    <vType id="pt_subway" vClass="rail_urban"/>
    <vType id="pt_light_rail" vClass="rail_urban"/>
    <vType id="pt_monorail" vClass="rail"/>
    <vType id="pt_trolleybus" vClass="bus"/>
    <vType id="pt_minibus" vClass="bus"/>
    <vType id="pt_share_taxi" vClass="taxi"/>
    <vType id="pt_aerialway" vClass="bus"/>
    <vType id="pt_ferry" vClass="ship"/>
    <route id="pt_train_S77:1" edges="194672511#1" >
        <stop busStop="7908898589" duration="20" until="71.0"/> <!-- Luzern -->
    </route>
    <route id="pt_train_S99:0" edges="86320760" >
        <stop busStop="1002463599" duration="20" until="31.0"/> <!-- Luzern -->
    </route>
    <route id="pt_train_S6:1" edges="86320371" >
        <stop busStop="1002465533" duration="20" until="71.0"/> <!-- Luzern -->
    </route>
    <route id="pt_train_IR_70:0" edges="-834322750 -86320687 -86320968#1 -115969649#1 -115969649#0 30265506#4 86320913#1 86320913#2 773836910 116828436 87230766 194755454 10853494#1 194755453 87230806#1 96928656 -196352164 -87230813 -197445064 194752642 430415318 194752640" >
    </route>
    <route id="pt_bus_N33:1" edges="-115953540#4 -25640511 134989551#0 179839873#0 94603025 94603075 94603000 94603059 94602900 94602944 94602961#0 94728338 94721111#0 144968178 53620033 44129718 31264893 184818318#0 206490679 120517467#0 39447057#0 96652797#0 305482866#0 134989584#0 134989584#2 121516958#0 452295145 452295147#0 -95094998#1 -179476008#1 -32787503#3 10968765#0 10426676 74320151 298490058 24544092 10306683 42264604" >
        <stop busStop="-7005106863@10330274" duration="20" until="31.0"/> <!-- Luzern, Inseli -->
    </route>
    <route id="pt_train_S77:0" edges="25921504 25921503 -87230807#1 -194752631 196352165 196352164 -96928655 -96928644 -194755453 -10853494#1 -194755454 -197135813 -116828436 116828438 773836909#0 773836909#1 116828439 194672511#0 194672511#1" >
        <stop busStop="7908898589" duration="20" until="310.0"/> <!-- Luzern -->
    </route>
    <route id="pt_bus_N33:0" edges="42265219 184750474 24544096 24544097 24544094 24544099 542954995 201725697 420302482#0 43418077#0 32787503#0 179476008#0 95094998#0 134989618 157304012#0 157304012#3 201725669#0 -305482866#3 -96652797#2 -39447057#1 -120517467#2 -206490679 -184818318#1 -444584961#2 35964675#0 35964673 94721113#0 94721113#2 94602911 94602990 94603047 94603062 94603096 94602949 94603009#0 94603009#1 31264906#0 25640511 115953540#0 115953541#0" >
        <stop busStop="7005106863" duration="20" until="358.0"/> <!-- Luzern, Inseli -->
    </route>
    <route id="pt_bus_73:1" color="255,204,0" edges="93752629 94603051 94603086 94603032#0 94602925 94603015 94603025 94603075 94603000 94603059 94602900 94602944 94602961#0 44129709#0 93720113 100873454#0 35857085#0 452510297 94522261 94522275#0 364075852#0 364075852#7 80446532#0 557814529 557814530#1 283174676#0 283174676#1" >
        <stop busStop="598172359" duration="20" until="35.0"/> <!-- Luzern Bahnhof -->
        <stop busStop="1165748197" duration="20" until="184.0"/> <!-- Schwanenplatz -->
        <stop busStop="1098133697" duration="20" until="248.0"/> <!-- Luzernerhof -->
    </route>
    <route id="pt_train_S9:0" edges="194675922" >
        <stop busStop="333555694" duration="20" until="39.0"/> <!-- Luzern -->
    </route>
    <route id="pt_train_S3:0" edges="-103893220 -27601634#2 -27601634#1 -27601634#0 -135207290 -10853494#1 -194755454 -197135813 -116828436 -773836910 -86320913#2 -86320913#1 -30265506#4 -30265506#3 116828544 773813396 86320760" >
        <stop busStop="-1398732992" duration="20" until="58.0"/> <!-- Luzern Verkehrshaus -->
        <stop busStop="1002463599" duration="20" until="410.0"/> <!-- Luzern -->
    </route>
    <route id="pt_bus_42:1" edges="19803068#0 -39074665#1" >
        <stop busStop="-7184667178" duration="20" until="112.0"/> <!-- Waldstrasse -->
    </route>
    <route id="pt_train_480:0" edges="118745118" >
        <stop busStop="2051794005" duration="20" until="58.0"/> <!-- Luzern -->
    </route>
    <route id="pt_bus_42:0" edges="-39074665#1 39074665#0 866204097 -866204097 -19803068#1" >
        <stop busStop="-7184667178" duration="20" until="40.0"/> <!-- Waldstrasse -->
        <stop busStop="-7184667176" duration="20" until="157.0"/> <!-- Obermättlistrasse -->
    </route>
    <route id="pt_bus_43:0" edges="19803068#0 -39074665#1" >
        <stop busStop="-7184667178" duration="20" until="137.0"/> <!-- Waldstrasse -->
    </route>
    <route id="pt_train_S99:1" edges="87230791#0 -194752636 -430415323#1 -430415323#0 -87230807#1 -194752631 196352165 196352164 -96928655 -96928644 -194755453 -10853494#1 -194755454 -197135813 -116828436 -773836910 -86320913#2 -86320913#1 -30265506#4 -30265506#3 116828544 773813396 86320760" >
        <stop busStop="1002463599" duration="20" until="321.0"/> <!-- Luzern -->
    </route>
    <route id="pt_trolleybus_4:0" edges="94727480#0 94721111#0 144968178 53620033 44129718 31264893 184818318#0 206490679 120517467#0 -397546364#2 -772705476 -772705478 -305482859#3 -305482859#1 -305482859#0 4538163#0 305482857 30808996 658509487 305482863 305482879 305647816 305482861#0 305482861#2 305482861#3 305482861#4" >
        <stop busStop="598172353" duration="20" until="36.0"/> <!-- Luzern Bahnhof -->
        <stop busStop="-7274331909" duration="20" until="320.0"/> <!-- Kantonalbank -->
        <stop busStop="-472459433" duration="20" until="391.0"/> <!-- Bundesplatz -->
        <stop busStop="984024081" duration="20" until="479.0"/> <!-- Brünigstrasse -->
        <stop busStop="1485039575" duration="20" until="540.0"/> <!-- Tiefe -->
    </route>
    <route id="pt_bus_1524:0" edges="42265219 184750474 24544096 24544097 24544094 24544099 542954995 201725697 420302482#0 43418077#0 32787503#0 179476008#0 95094998#0 134989618 157304012#0 157304012#3 201725669#0 -305482866#3 -96652797#2 -39447057#1 -120517467#2 -206490679 -184818318#1 -444584961#2 35964675#0 35964673 94721113#0 94721113#2 94602911 94602990 94603047 94603062 94603096 94602949 94603009#0 94603009#1 31264906#0 25640511 115953540#0 115953541#0 29730000#0 29730000#4 -39193487#23 -39193487#22 25640514#1 25640514#2 42029070#4 42029070#6 42369811#0 -305482877#6 -305482877#3 94545457 135207246 20331091#0 20331090 305482853 305482855 164358766 305482854 394162166 394162152 10426675 450022337 -401703302 -746434519#5 -746434519#2 -772496328 51080603#0 10426673 51080602" >
        <stop busStop="7005106863" duration="20" until="386.0"/> <!-- Luzern, Inseli -->
    </route>
    <route id="pt_bus_43:1" edges="-39074665#1 39074665#0 866204097 -866204097 -19803068#1" >
        <stop busStop="-7184667178" duration="20" until="59.0"/> <!-- Waldstrasse -->
        <stop busStop="-7184667176" duration="20" until="177.0"/> <!-- Obermättlistrasse -->
    </route>
    <route id="pt_train_IC_21:0" edges="118745118" >
        <stop busStop="2051794005" duration="20" until="97.0"/> <!-- Luzern -->
    </route>
    <route id="pt_train_S6:0" edges="25921504 25921503 -87230807#1 -194752631 196352165 196352164 -96928655 -96928644 -194755453 -10853494#1 -194755454 -197135813 -116828436 -773836910 -86320913#2 -86320913#1 -30265506#4 115969649#0 115969649#1 86320968#1 86320687 86320371" >
        <stop busStop="1002465533" duration="20" until="397.0"/> <!-- Luzern -->
    </route>
    <route id="pt_bus_21:0" edges="-705286368#4 -305482877#6 -305482877#3 94545457 135207246 20331091#0 20331090 305482853 305482855 164358766 305482860#0 305482859#0 305482859#1 305482859#2 305482859#4 772705476 397546364#0 -120517467#2 -206490679 -184818318#1 -444584961#2 35964675#0 35964673 94721113#0 94721113#2 94602911 94602990 94603047 94603062 94603096 94602949 93752643 94602977 94603032#0 94602925 93752650" >
        <stop busStop="-506671368" duration="20" until="51.0"/> <!-- Werkhofstrasse -->
        <stop busStop="472459432" duration="20" until="174.0"/> <!-- Kantonalbank -->
        <stop busStop="598172366" duration="20" until="571.0"/> <!-- Luzern Bahnhof -->
    </route>
    <route id="pt_train_VAE:0" color="179,165,124" edges="-103893220 -27601634#2 -27601634#1 -27601634#0 -135207290 -10853494#1 -194755454 -197135813 -116828436 116828438 773836909#0 773836909#1 116828439 194672511#0 194672511#1" >
        <stop busStop="-1398732992" duration="20" until="58.0"/> <!-- Luzern Verkehrshaus -->
        <stop busStop="7908898589" duration="20" until="424.0"/> <!-- Luzern -->
    </route>
    <route id="pt_train_S1:1" edges="87230791#0 -194752636 -430415323#1 -430415323#0 -87230807#1 -194752631 196352165 196352164 -96928655 -96928644 -194755453 -10853494#1 -194755454 -197135813 -116828436 -773836910 -86320913#2 -86320913#1 -30265506#4 -30265506#3 116828544 773813396 194675922" >
        <stop busStop="333555694" duration="20" until="246.0"/> <!-- Luzern -->
    </route>
    <route id="pt_trolleybus_5:0" edges="-560703491#2 -560703491#0 -94721106#4 -94721106#2 -94721106#0 -24980031#1 1013074042#0 94721105#4 94721105#5 -43418075#8 -43418075#3 -43418075#1 32846420#0 32846420#1 32846420#3 97664100#0 43418077#0 32787503#0 179476008#0 95094998#0 134989618 157304012#0 157304012#3 201725669#0 397705245#0 8428661#0 8428661#3 8428661#5 386850954#0 10426673 51080602" >
        <stop busStop="-4441508552" duration="20" until="38.0"/> <!-- Schiff -->
        <stop busStop="-7276028336" duration="20" until="115.0"/> <!-- Fluhmühle -->
        <stop busStop="-7276082784" duration="20" until="217.0"/> <!-- Kreuzstutz -->
        <stop busStop="-7276028335" duration="20" until="292.0"/> <!-- Gütsch -->
        <stop busStop="311287459" duration="20" until="365.0"/> <!-- Kasernenplatz -->
        <stop busStop="1096064553" duration="20" until="447.0"/> <!-- Hirzenhof -->
        <stop busStop="28197903" duration="20" until="505.0"/> <!-- Pilatusplatz -->
        <stop busStop="598172345" duration="20" until="564.0"/> <!-- Moosegg -->
        <stop busStop="598172343" duration="20" until="622.0"/> <!-- Paulusplatz -->
    </route>
    <route id="pt_train_IC_21:1" edges="118745118" >
        <stop busStop="2051794005" duration="20" until="94.0"/> <!-- Luzern -->
    </route>
    <route id="pt_trolleybus_4:1" edges="-305482861#2 -305482861#1 305482878 305482877#0 -305482877#3 94545457 135207246 20331091#0 20331090 305482853 305482855 164358766 305482860#0 305482859#0 305482859#1 305482859#2 305482859#4 772705476 397546364#0 -120517467#2 -206490679 -184818318#1 -444584961#2 35964675#0 94727480#0" >
        <stop busStop="-7274331913" duration="20" until="41.0"/> <!-- Brünigstrasse -->
        <stop busStop="3715907112" duration="20" until="192.0"/> <!-- Bundesplatz -->
        <stop busStop="472459432" duration="20" until="290.0"/> <!-- Kantonalbank -->
        <stop busStop="598172353" duration="20" until="519.0"/> <!-- Luzern Bahnhof -->
    </route>
    <route id="pt_trolleybus_1:0" edges="93752636 94603086 94603032#0 94602925 94603015 94603025 94603075 94603000 94603059 94602900 94602944 94602961#0 44129709#0 93720113 100873454#0 35857085#0 452510297 94522272#0 134989578#0 94545447#1 712687104#0 712687104#1 712687104#2 712687104#3 22384595#0 22384595#2 22384595#4 22384595#5 22384595#6 22384595#7 22384595#8 93720122#0 -330757768#7 -330757768#3" >
        <stop busStop="598172362" duration="20" until="35.0"/> <!-- Luzern Bahnhof -->
        <stop busStop="1165748197" duration="20" until="195.0"/> <!-- Schwanenplatz -->
        <stop busStop="1483240184" duration="20" until="296.0"/> <!-- Luzernerhof -->
        <stop busStop="308240450" duration="20" until="358.0"/> <!-- Löwenplatz -->
        <stop busStop="7274196194" duration="20" until="416.0"/> <!-- Wesemlinrain -->
        <stop busStop="-7248262541" duration="20" until="497.0"/> <!-- Schlossberg -->
        <stop busStop="-7248262545" duration="20" until="539.0"/> <!-- Weggismatt -->
        <stop busStop="-1485039517" duration="20" until="605.0"/> <!-- Maihofmatte-Rotsee -->
    </route>
    <route id="pt_train_S9:1" edges="87230791#0 -194752636 -430415323#1 -430415323#0 -87230807#1 -194752631 196352165 196352164 -96928655 -96928644 -194755453 -10853494#1 -194755454 -197135813 -116828436 -773836910 -86320913#2 -86320913#1 -30265506#4 -30265506#3 116828544 773813396 194675922" >
        <stop busStop="333555694" duration="20" until="343.0"/> <!-- Luzern -->
    </route>
    <route id="pt_bus_71:1" color="255,204,0" edges="-51080602 -10426673 -386850954#2 -8428661#7 -8428661#4 -8428661#1 -397705250 -305482866#3 -96652797#2 -39447057#1 -120517467#2 -206490679 -184818318#1 -444584961#2 35964675#0 35964673 94721113#0 94721113#2 94602911 94602990 94603047 94603062 94603096 94602949 93752643 94602977 94603032#0 93752627 94603021 93752631" >
        <stop busStop="-260019054" duration="20" until="119.0"/> <!-- Pilatusplatz -->
        <stop busStop="598172365" duration="20" until="674.0"/> <!-- Luzern Bahnhof -->
    </route>
    <route id="pt_bus_73:4" color="255,204,0" edges="93752629 94603051 94603086 94603032#0 94602925 94603015 94603025 94603075 94603000 94603059 94602900 94602944 94602961#0 44129709#0 93720113 100873454#0 35857085#0 452510297 94522261 94522275#0 364075852#0 364075852#7 80446532#0 557814529 557814530#1 283174676#0 283174676#1" >
        <stop busStop="598172359" duration="20" until="36.0"/> <!-- Luzern Bahnhof -->
        <stop busStop="1165748197" duration="20" until="438.0"/> <!-- Schwanenplatz -->
        <stop busStop="1098133697" duration="20" until="501.0"/> <!-- Luzernerhof -->
    </route>
    <route id="pt_train_IR_27:1" edges="118745118" >
        <stop busStop="2051794005" duration="20" until="58.0"/> <!-- Luzern -->
    </route>
    <route id="pt_bus_72:0" color="255,204,0" edges="93752640 94603000 94603059 94602900 94602944 94602961#0 94728338 94721111#0 144968178 53620033 44129718 31264893 184818318#0 206490679 120517467#0 39447057#0 96652797#0 305482866#0 134989584#0 134989584#2 121516958#0 452295145 452295147#0 -95094998#1 -179476008#1 -32787503#3 10968767#0 10968767#3 201725670#0 146343279 539627119 33113038 -33113038 -539627105#1 -146343279 32846421#0 74320151 298490058 24544092 10306683 42264604" >
        <stop busStop="598172367" duration="20" until="37.0"/> <!-- Luzern Bahnhof -->
        <stop busStop="1483240186" duration="20" until="612.0"/> <!-- Pilatusplatz -->
        <stop busStop="311606382" duration="20" until="686.0"/> <!-- Kasernenplatz -->
    </route>
    <route id="pt_train_600:0" edges="194752640 -32997881 -430415318 -194752642 197445064 196352165 196352164 -96928655 -96928644 -194755453 -10853494#1 -194755454 -197135813 -116828436 -773836910 -86320913#2 -86320913#1 -30265506#4 115969649#0 115969649#1 86320968#1 86320687 118745118 -834322750 -86320687 -86320968#1 -115969649#1 -115969649#0 30265506#4 86320913#1 86320913#2 773836910 116828436 87230766 194755454 10853494#1 10853494#2 24937540 96928627" >
        <stop busStop="2051794005" duration="20" until="284.0"/> <!-- Luzern -->
    </route>
    <route id="pt_train_IR_70:1" edges="118745118" >
        <stop busStop="2051794005" duration="20" until="97.0"/> <!-- Luzern -->
    </route>
    <route id="pt_bus_30:0" edges="19803517#0 36723787#0 190192157#1 190192157#5 190192157#8 553460094#0 94721105#5 94721105#1 135572695#0 135572695#2 98947219#0 98947219#1 146343280 24980035 24980036#0 866030035#0 866030035#1 22386331#0 22386331#2 887914950#1 -22385351#6 -22385351#5 -22385351#4 93720121#0 93720121#1 136641146#0 136641146#4 -330757768#7 -330757768#3" >
        <stop busStop="984024105" duration="20" until="52.0"/> <!-- Blattenmoos -->
        <stop busStop="311606402" duration="20" until="115.0"/> <!-- Michaelshof -->
        <stop busStop="206372728" duration="20" until="173.0"/> <!-- Längweiher -->
        <stop busStop="206372731" duration="20" until="231.0"/> <!-- Rönnimoosrain -->
        <stop busStop="426860182" duration="20" until="287.0"/> <!-- Grenzhof -->
        <stop busStop="1099877714" duration="20" until="362.0"/> <!-- Kanonenstrasse -->
        <stop busStop="1099807926" duration="20" until="424.0"/> <!-- Kreuzstutz -->
        <stop busStop="984024323" duration="20" until="504.0"/> <!-- St. Karli -->
        <stop busStop="1096064551" duration="20" until="597.0"/> <!-- Kantonsspital -->
        <stop busStop="984024066" duration="20" until="668.0"/> <!-- Urnerhof -->
        <stop busStop="-984024117" duration="20" until="745.0"/> <!-- Rosenberg -->
        <stop busStop="-7248262541" duration="20" until="819.0"/> <!-- Schlossberg -->
        <stop busStop="-7248262545" duration="20" until="859.0"/> <!-- Weggismatt -->
        <stop busStop="-1485039517" duration="20" until="924.0"/> <!-- Maihofmatte-Rotsee -->
    </route>
    <route id="pt_bus_30:1" edges="330757768#0 330757768#4 -136641146#5 -136641146#3 93720121#2 22385351#0 22385351#5 22385351#6 -887914950#2 -22386331#5 -22386331#1 -866030035#4 -866030035#0 -24980036#2 -24980035 -146343280 -98947219#1 -98947219#0 -135572695#2 -135572695#1 94721105#2 94721105#3 94721105#4 -553460094#1 -190192157#10 -190192157#7 -190192157#3 -190192157#0 -19803517#2" >
        <stop busStop="1485039517" duration="20" until="58.0"/> <!-- Maihofmatte-Rotsee -->
        <stop busStop="7248262544" duration="20" until="125.0"/> <!-- Weggismatt -->
        <stop busStop="-1499118015" duration="20" until="184.0"/> <!-- Schlossberg -->
        <stop busStop="984024117" duration="20" until="238.0"/> <!-- Rosenberg -->
        <stop busStop="-984024066" duration="20" until="325.0"/> <!-- Urnerhof -->
        <stop busStop="-206372754" duration="20" until="412.0"/> <!-- Kantonsspital -->
        <stop busStop="-7248262564" duration="20" until="503.0"/> <!-- St. Karli -->
        <stop busStop="-1099807926" duration="20" until="574.0"/> <!-- Kreuzstutz -->
        <stop busStop="-1099877741" duration="20" until="645.0"/> <!-- Kanonenstrasse -->
        <stop busStop="-1099877676" duration="20" until="702.0"/> <!-- Grenzhof -->
        <stop busStop="-311606391" duration="20" until="751.0"/> <!-- Rönnimoosrain -->
        <stop busStop="-311606396" duration="20" until="782.0"/> <!-- Längweiher -->
        <stop busStop="-206372726" duration="20" until="813.0"/> <!-- Michaelshof -->
        <stop busStop="-7248262568" duration="20" until="844.0"/> <!-- Blattenmoos -->
    </route>
    <route id="pt_bus_14:1" edges="94728204 779101386 44129709#0 93720113 100873454#0 35857085#0 452510297 94522272#0 134989578#0 134989556#0 134989556#1 -143232900#5 -143232900#1 -27603102#7 -27603102#6 -27603102#5 -27603102#2 -27603102#0 -27601327#2 -27601327#1 -27582118 27582119#0 27582119#4 622473971 622473970#1 27602528#0 27602528#1 27602527#0 27602527#1 27602527#2" >
        <stop busStop="6776962333@11820578" duration="20" until="31.0"/> <!-- Luzern Bahnhof -->
        <stop busStop="1165748197" duration="20" until="101.0"/> <!-- Schwanenplatz -->
        <stop busStop="1483240188" duration="20" until="200.0"/> <!-- Wey -->
        <stop busStop="-1483240181" duration="20" until="270.0"/> <!-- Kapuzinerweg -->
        <stop busStop="-984023828" duration="20" until="352.0"/> <!-- Gärtnerstrasse -->
        <stop busStop="-984024126" duration="20" until="430.0"/> <!-- Konservatorium -->
        <stop busStop="984023516" duration="20" until="500.0"/> <!-- Klinik St. Anna -->
        <stop busStop="984024118" duration="20" until="531.0"/> <!-- Lützelmattstrasse -->
        <stop busStop="8072044973" duration="20" until="609.0"/> <!-- Rigistrasse -->
        <stop busStop="8072044974" duration="20" until="679.0"/> <!-- Leumatt -->
        <stop busStop="984739332" duration="20" until="749.0"/> <!-- Schlösslirain -->
        <stop busStop="303097162" duration="20" until="812.0"/> <!-- Schlösslihalde -->
    </route>
    <route id="pt_train_IR_15:1" edges="118745118" >
        <stop busStop="2051794005" duration="20" until="97.0"/> <!-- Luzern -->
    </route>
    <route id="pt_bus_417:0" edges="-51080602 -10426673 -386850954#2 -8428661#7 -8428661#4 -8428661#1 -397705250 -305482866#3 -96652797#2 -39447057#1 -120517467#2 -206490679 -184818318#1 -444584961#2 35964675#0 35964673 94721113#0 94721113#2 94602911 94602990 94603047 94603062 94603096 94602949 94603009#0 94603009#1 31264906#0 25640511 115953540#0 115953541#0 29730000#0 29730000#4 -39193487#23 -39193487#22 25640514#1 25640514#2 42029070#4 42029070#6 42369811#0 -305482877#6 -305482877#3 94545457 135207246 20331091#0 20331090 305482853 305482855 164358766 305482854 394162166 394162152 10426675 450022337 -401703302 -746434519#5 -746434519#2 -772496328 51080603#0 10426673 51080602" >
        <stop busStop="7005106863" duration="20" until="279.0"/> <!-- Luzern, Inseli -->
    </route>
    <route id="pt_bus_20:2" edges="94602935 94602933 94602961#0 94728338 94721111#0 144968178 53620033 44129718 31264893 184818318#0 206490679 120517467#0 39447057#0 96652797#0 305482866#0 397705245#0 8428661#0 8428661#3 8428661#5 386850954#0 10426673 51080602" >
        <stop busStop="1098666350" duration="20" until="340.0"/> <!-- Luzern Bahnhof -->
        <stop busStop="472459430" duration="20" until="749.0"/> <!-- Kantonalbank -->
        <stop busStop="28197903" duration="20" until="829.0"/> <!-- Pilatusplatz -->
        <stop busStop="598172343" duration="20" until="923.0"/> <!-- Paulusplatz -->
    </route>
    <route id="pt_train_EC_151:0" edges="87230791#0 -194752636 -430415323#1 -430415323#0 -87230807#1 -194752631 196352165 196352164 -96928655 -96928644 -194755453 -10853494#1 -194755454 -197135813 -116828436 -773836910 -86320913#2 -86320913#1 -30265506#4 -30265506#3 -30265506#2 -30265506#1 -641872993#0 86320713 -834322747 641872993#0 30265506#1 30265506#2 30265506#3 30265506#4 86320913#1 86320913#2 773836910 116828436 87230766 194755454 10853494#1 194755453 87230806#1 96928656 -196352164 -87230813 -197445064 194752642 430415318 194752640" >
        <stop busStop="1002466274" duration="20" until="297.0"/> <!-- Luzern -->
    </route>
    <route id="pt_train_S1:0" edges="118745125 194672510 -86320968#1 -115969649#1 -115969649#0 30265506#4 86320913#1 86320913#2 773836910 116828436 87230766 194755454 10853494#1 194755453 87230806#1 96928656 -196352164 -87230813 194752631 87230807#1 430415323#0 430415323#1 32031419" >
        <stop busStop="1002465031" duration="20" until="31.0"/> <!-- Luzern -->
    </route>
    <route id="pt_bus_437:0" edges="-51080602 -10426673 -386850954#2 -8428661#7 -8428661#4 -8428661#1 -397705250 -305482866#3 -96652797#2 -39447057#1 -120517467#2 -206490679 -184818318#1 -444584961#2 35964675#0 35964673 94721113#0 94721113#2 94602911 94602990 94603047 94603062 94603096 94602949 94603009#0 94603009#1 31264906#0 25640511 115953540#0 115953541#0 29730000#0 29730000#4 -39193487#23 -39193487#22 25640514#1 25640514#2 42029070#4 42029070#6 42369811#0 -305482877#6 -305482877#3 94545457 135207246 20331091#0 20331090 305482853 305482855 164358766 305482854 394162166 394162152 10426675 450022337 -401703302 -746434519#5 -746434519#2 -772496328 51080603#0 10426673 51080602" >
        <stop busStop="7005106863" duration="20" until="302.0"/> <!-- Luzern, Inseli -->
    </route>
    <route id="pt_bus_71:0" color="255,204,0" edges="93752631 94603059 94602900 94602944 94602961#0 94728338 94721111#0 144968178 53620033 44129718 31264893 184818318#0 206490679 120517467#0 39447057#0 96652797#0 305482866#0 397705245#0 8428661#0 8428661#3 8428661#5 386850954#0 10426673 51080602" >
        <stop busStop="598172365" duration="20" until="37.0"/> <!-- Luzern Bahnhof -->
        <stop busStop="28197903" duration="20" until="858.0"/> <!-- Pilatusplatz -->
    </route>
    <route id="pt_trolleybus_5:1" edges="-51080602 -10426673 -386850954#2 -8428661#7 -8428661#4 -8428661#1 -397705250 134989584#0 134989584#2 121516958#0 452295145 452295147#0 -95094998#1 -179476008#1 -32787503#3 10968767#0 10968767#3 201725670#0 -539627120#1 43418075#0 43418075#2 43418075#4 94721105#1 94721105#2 1013074041#0 24980031#0 94721106#0 94721106#1 94721106#3 560703491#0 560703491#1" >
        <stop busStop="-598172343" duration="20" until="45.0"/> <!-- Paulusplatz -->
        <stop busStop="-598172346" duration="20" until="132.0"/> <!-- Moosegg -->
        <stop busStop="1483240186" duration="20" until="241.0"/> <!-- Pilatusplatz -->
        <stop busStop="-984024152" duration="20" until="294.0"/> <!-- Hirzenhof -->
        <stop busStop="311606382" duration="20" until="354.0"/> <!-- Kasernenplatz -->
        <stop busStop="311606385" duration="20" until="438.0"/> <!-- Gütsch -->
        <stop busStop="627053218" duration="20" until="566.0"/> <!-- Fluhmühle -->
    </route>
    <route id="pt_train_IR_26:0" edges="87230791#0 -194752636 -430415323#1 -430415323#0 -87230807#1 -194752631 196352165 196352164 -96928655 -96928644 -194755453 -10853494#1 -194755454 -197135813 -116828436 -773836910 -86320913#2 -86320913#1 -30265506#4 115969649#0 115969649#1 86320968#1 86320687 118745118 -834322750 -86320687 -86320968#1 -115969649#1 -115969649#0 30265506#4 86320913#1 86320913#2 773836910 116828436 87230766 194755454 10853494#1 10853494#2" >
    </route>
    <route id="pt_train_IR_27:0" edges="118745107 641872993#0 30265506#1 30265506#2 30265506#3 30265506#4 86320913#1 86320913#2 773836910 116828436 87230766 194755454 10853494#1 194755453 87230806#1 96928656 -196352164 -87230813 194752631 87230807#1 430415323#0 430415323#1 32031419" >
        <stop busStop="2051794005@7782644" duration="20" until="31.0"/> <!-- Luzern -->
    </route>
    <route id="pt_bus_73:5" color="255,204,0" edges="93752629 94603051 94603086 94603032#0 94602925 94603015 94603025 94603075 94603000 94603059 94602900 94602944 94602961#0 44129709#0 93720113 100873454#0 35857085#0 452510297 94522261 94522275#0 364075852#0 364075852#7 80446532#0 557814529 557814530#1 283174676#0 283174676#1" >
        <stop busStop="598172359" duration="20" until="36.0"/> <!-- Luzern Bahnhof -->
        <stop busStop="1165748197" duration="20" until="583.0"/> <!-- Schwanenplatz -->
        <stop busStop="1098133697" duration="20" until="660.0"/> <!-- Luzernerhof -->
    </route>
    <route id="pt_bus_20:0" edges="-51080602 -10426673 -386850954#2 -8428661#7 -8428661#4 -8428661#1 -397705250 -305482866#3 -96652797#2 -39447057#1 -120517467#2 -206490679 -184818318#1 -444584961#2 35964675#0 35964673 94721113#0 94721113#2 94602911 94602990 94603047 94603062 94603096 94602949 93752643 94602977 94603032#0 93752627 94603021 94603039 94603084 94602935" >
        <stop busStop="-598172343" duration="20" until="44.0"/> <!-- Paulusplatz -->
        <stop busStop="-260019054" duration="20" until="142.0"/> <!-- Pilatusplatz -->
        <stop busStop="-27329497" duration="20" until="194.0"/> <!-- Kantonalbank -->
        <stop busStop="1098666350" duration="20" until="1068.0"/> <!-- Luzern Bahnhof -->
    </route>
    <route id="pt_train_IR_15:0" edges="118745107 641872993#0 30265506#1 30265506#2 30265506#3 30265506#4 86320913#1 86320913#2 773836910 116828436 87230766 194755454 10853494#1 194755453 87230806#1 96928656 -196352164 -87230813 194752631 87230807#1 430415323#0 430415323#1 32031419" >
        <stop busStop="2051794005@7782644" duration="20" until="31.0"/> <!-- Luzern -->
    </route>
    <route id="pt_train_VAE:1" color="179,165,124" edges="-834322754 -194672511#0 -116828439 -773836909#1 -773836909#0 -116828438 116828436 87230766 194755454 10853494#1 10853494#2 19802208 27601634#1 27601634#2 126092202" >
        <stop busStop="-7908898589" duration="20" until="31.0"/> <!-- Luzern -->
        <stop busStop="1398733007" duration="20" until="394.0"/> <!-- Luzern Verkehrshaus -->
    </route>
    <route id="pt_bus_20:3" edges="-51080602 -10426673 -386850954#2 -8428661#7 -8428661#4 -8428661#1 -397705250 -305482866#3 -96652797#2 -39447057#1 -120517467#2 -206490679 -184818318#1 -444584961#2 35964675#0 35964673 94721113#0 94721113#2 94602911 94602990 94603047 94603062 94603096 94602949 93752643 94602977 94603032#0 93752627 94603021 94603039 94603084 94602935" >
        <stop busStop="-598172343" duration="20" until="69.0"/> <!-- Paulusplatz -->
        <stop busStop="-260019054" duration="20" until="208.0"/> <!-- Pilatusplatz -->
        <stop busStop="-27329497" duration="20" until="261.0"/> <!-- Kantonalbank -->
        <stop busStop="1098666350" duration="20" until="1091.0"/> <!-- Luzern Bahnhof -->
    </route>
    <route id="pt_train_IR_26:1" edges="-430415323#1 -430415323#0 -87230807#1 -194752631 196352165 196352164 -96928655 -96928644 -194755453 -10853494#1 -194755454 -197135813 -116828436 -773836910 -86320913#2 -86320913#1 -30265506#4 115969649#0 115969649#1 86320968#1 86320687 118745118 -834322750 -86320687 -86320968#1 -115969649#1 -115969649#0 30265506#4 86320913#1 86320913#2 773836910 116828436 87230766 194755454 10853494#1 194755453 87230806#1 96928656 -196352164 -87230813 -197445064 194752642 430415318 194752640" >
    </route>
    <route id="pt_bus_21:1" edges="93752650 94603075 94603000 94603059 94602900 94602944 94602961#0 94728338 94721111#0 144968178 53620033 44129718 31264893 184818318#0 206490679 120517467#0 -397546364#2 -772705476 -772705478 -305482859#3 -305482859#1 -305482859#0 4538163#0 305482857 30808996 658509487 305482863 305482879 305647816 305482878 305482877#0 305482877#4 705286368#0" >
        <stop busStop="598172366" duration="20" until="36.0"/> <!-- Luzern Bahnhof -->
        <stop busStop="-7274331909" duration="20" until="986.0"/> <!-- Kantonalbank -->
        <stop busStop="506671071" duration="20" until="1112.0"/> <!-- Werkhofstrasse -->
    </route>