<?xml version="1.0" encoding="UTF-8"?>

<!-- generated on 2022-03-06 12:42:04 by Eclipse SUMO netconvert Version 1.12.0
<configuration xmlns:xsi="http://www.w3.org/2001/XMLSchema-instance" xsi:noNamespaceSchemaLocation="http://sumo.dlr.de/xsd/netconvertConfiguration.xsd">

    <input>
        <type-files value="C:\Program%20Files%20(x86)\Eclipse\Sumo\data\typemap\osmNetconvert.typ.xml"/>
        <osm-files value="osm_bbox.osm.xml"/>
    </input>

    <output>
        <output-file value="osm.net.xml"/>
        <output.street-names value="true"/>
        <output.original-names value="true"/>
        <ptstop-output value="osm_stops.add.xml"/>
        <ptline-output value="osm_ptlines.xml"/>
    </output>

    <projection>
        <proj.utm value="true"/>
    </projection>

    <processing>
        <geometry.remove value="true"/>
        <roundabouts.guess value="true"/>
    </processing>

    <tls_building>
        <tls.discard-simple value="true"/>
        <tls.join value="true"/>
        <tls.guess-signals value="true"/>
        <tls.default-type value="actuated"/>
    </tls_building>

    <ramp_guessing>
        <ramps.guess value="true"/>
    </ramp_guessing>

    <edge_removal>
        <keep-edges.by-vclass value="passenger,bus,tram,rail_urban,rail"/>
    </edge_removal>

    <junctions>
        <junctions.join value="true"/>
        <junctions.corner-detail value="5"/>
    </junctions>

    <railway>
        <railway.topology.repair value="true"/>
        <railway.topology.repair.stop-turn value="true"/>
    </railway>

    <report>
        <verbose value="true"/>
        <aggregate-warnings value="5"/>
    </report>

</configuration>
-->

<additional xmlns:xsi="http://www.w3.org/2001/XMLSchema-instance" xsi:noNamespaceSchemaLocation="http://sumo.dlr.de/xsd/additional_file.xsd">
    <busStop id="-1002463599" name="Luzern" lane="-834322745_0" startPos="0.00" endPos="104.10" friendlyPos="true">
        <access lane="-378838597_0" pos="85.66" length="50.46" friendlyPos="1"/>
        <access lane="378838597_0" pos="15.73" length="45.66" friendlyPos="1"/>
        <access lane="94602911_0" pos="0.21" length="55.49" friendlyPos="1"/>
        <access lane="94602990_0" pos="0.27" length="54.09" friendlyPos="1"/>
        <access lane="94603047_0" pos="0.00" length="54.87" friendlyPos="1"/>
    </busStop>
    <busStop id="-1002465031" name="Luzern" lane="-834322752_0" startPos="264.80" endPos="369.60" friendlyPos="true">
        <access lane="153756400_0" pos="20.28" length="67.30" friendlyPos="1"/>
        <access lane="35964673_0" pos="0.00" length="55.98" friendlyPos="1"/>
        <access lane="35964674#0_0" pos="20.07" length="47.15" friendlyPos="1"/>
        <access lane="93724129_0" pos="0.00" length="62.33" friendlyPos="1"/>
        <access lane="94721113#0_0" pos="0.00" length="64.64" friendlyPos="1"/>
    </busStop>
    <busStop id="-1002465533" name="Luzern" lane="-834322751_0" startPos="0.00" endPos="104.68" friendlyPos="true">
        <access lane="35964673_0" pos="0.33" length="53.88" friendlyPos="1"/>
        <access lane="35964674#0_0" pos="20.05" length="64.93" friendlyPos="1"/>
        <access lane="779101383_0" pos="0.00" length="67.37" friendlyPos="1"/>
        <access lane="94721108_0" pos="0.00" length="67.56" friendlyPos="1"/>
        <access lane="94721113#0_0" pos="0.00" length="56.87" friendlyPos="1"/>
    </busStop>
    <busStop id="-1002465535" name="Luzern" lane="-834322749_0" startPos="0.00" endPos="104.49" friendlyPos="true">
        <access lane="-378838597_0" pos="97.40" length="64.06" friendlyPos="1"/>
        <access lane="35964673_0" pos="0.33" length="61.23" friendlyPos="1"/>
        <access lane="378838597_0" pos="2.70" length="59.02" friendlyPos="1"/>
        <access lane="94721113#0_0" pos="6.05" length="54.13" friendlyPos="1"/>
        <access lane="94721113#2_0" pos="0.00" length="64.10" friendlyPos="1"/>
    </busStop>
    <busStop id="-1002466274" name="Luzern" lane="-834322747_0" startPos="0.00" endPos="104.30" friendlyPos="true">
        <access lane="-378838597_0" pos="97.40" length="52.36" friendlyPos="1"/>
        <access lane="378838597_0" pos="2.70" length="47.30" friendlyPos="1"/>
        <access lane="94602911_0" pos="0.00" length="56.43" friendlyPos="1"/>
        <access lane="94721113#0_0" pos="20.85" length="54.67" friendlyPos="1"/>
        <access lane="94721113#2_0" pos="0.00" length="54.93" friendlyPos="1"/>
    </busStop>
    <busStop id="-1098133696" name="Dietschiberg" lane="-80446532#2_0" startPos="0.00" endPos="11.45" friendlyPos="true" lines="6 8"/>
    <busStop id="-1099807926" name="Kreuzstutz" lane="-190192157#10_0" startPos="8.13" endPos="23.13" friendlyPos="true" lines="30 12"/>
    <busStop id="-1099877676" name="Grenzhof" lane="-190192157#0_0" startPos="27.60" endPos="42.60" friendlyPos="true" lines="30"/>
    <busStop id="-1099877741" name="Kanonenstrasse" lane="-190192157#3_0" startPos="3.27" endPos="18.27" friendlyPos="true" lines="30 12"/>
    <busStop id="-1356968579" name="Schlossberg" lane="-93720122#2_0" startPos="41.98" endPos="56.98" friendlyPos="true" lines="1 19"/>
    <busStop id="-1398732992" name="Luzern Verkehrshaus" lane="-103893220_0" startPos="14.55" endPos="214.55" friendlyPos="true">
        <access lane="-27602296#9_0" pos="122.27" length="80.41" friendlyPos="1"/>
        <access lane="27602296#6_0" pos="396.55" length="75.61" friendlyPos="1"/>
        <access lane="283174676#1_0" pos="188.61" length="37.91" friendlyPos="1"/>
        <access lane="283174677#0_0" pos="108.09" length="23.70" friendlyPos="1"/>
    </busStop>
    <busStop id="-1483240180" name="Dreilinden" lane="-134989549#1_0" startPos="50.73" endPos="64.72" friendlyPos="true" lines="7"/>
    <busStop id="-1483240181" name="Kapuzinerweg" lane="-143232900#1_0" startPos="26.01" endPos="41.01" friendlyPos="true" lines="14 7"/>
    <busStop id="-1483240182" name="Kloster" lane="-134989549#9_0" startPos="25.11" endPos="40.11" friendlyPos="true" lines="7"/>
    <busStop id="-1483240187" name="Wesemlinrain" lane="-22384595#3_0" startPos="14.28" endPos="25.65" friendlyPos="true" lines="1 19"/>
    <busStop id="-1485039517" name="Maihofmatte-Rotsee" lane="-330757768#3_0" startPos="2.80" endPos="17.80" friendlyPos="true" lines="30 1"/>
    <busStop id="-1485039535" name="Morgenweg" lane="-135207223#2_0" startPos="169.00" endPos="184.00" friendlyPos="true" lines="7"/>
    <busStop id="-1485039627" name="Zwyssigplatz" lane="-135207223#2_0" startPos="13.88" endPos="28.88" friendlyPos="true" lines="7"/>
    <busStop id="-1499118015" name="Schlossberg" lane="-136641146#3_0" startPos="26.35" endPos="37.16" friendlyPos="true" lines="30 19"/>
    <busStop id="-2051794005" name="Luzern" lane="-834322750_0" startPos="0.00" endPos="7.50" friendlyPos="true">
        <access lane="-378838597_0" pos="97.40" length="36.15" friendlyPos="1"/>
        <access lane="378838597_0" pos="2.70" length="31.04" friendlyPos="1"/>
        <access lane="94602911_0" pos="0.00" length="41.04" friendlyPos="1"/>
        <access lane="94721113#0_0" pos="18.42" length="33.33" friendlyPos="1"/>
        <access lane="94721113#2_0" pos="0.00" length="36.77" friendlyPos="1"/>
    </busStop>
    <busStop id="-2051794005@7782644" name="Luzern" lane="-194675923_0" startPos="376.97" endPos="384.47" friendlyPos="true">
        <access lane="-378838597_0" pos="97.40" length="36.15" friendlyPos="1"/>
        <access lane="378838597_0" pos="2.70" length="31.04" friendlyPos="1"/>
        <access lane="94602911_0" pos="0.00" length="41.04" friendlyPos="1"/>
        <access lane="94721113#0_0" pos="18.42" length="33.33" friendlyPos="1"/>
        <access lane="94721113#2_0" pos="0.00" length="36.77" friendlyPos="1"/>
    </busStop>
    <busStop id="-206372726" name="Michaelshof" lane="-19803517#2_0" startPos="66.91" endPos="81.91" friendlyPos="true" lines="30 12"/>
    <busStop id="-206372754" name="Kantonsspital" lane="-22386331#1_0" startPos="0.00" endPos="7.70" friendlyPos="true" lines="30 9 19"/>
    <busStop id="-206381260" name="Luzern" lane="-194675923_0" startPos="280.04" endPos="384.47" friendlyPos="true">
        <access lane="-378838597_0" pos="97.40" length="59.79" friendlyPos="1"/>
        <access lane="378838597_0" pos="2.70" length="54.65" friendlyPos="1"/>
        <access lane="94602911_0" pos="0.00" length="64.62" friendlyPos="1"/>
        <access lane="94721113#0_0" pos="11.11" length="54.19" friendlyPos="1"/>
        <access lane="94721113#2_0" pos="0.00" length="60.46" friendlyPos="1"/>
    </busStop>
    <busStop id="-260019054" name="Pilatusplatz" lane="-305482866#3_0" startPos="0.00" endPos="10.41" friendlyPos="true" lines="2 20 9 10 52 71 72 1 12 61 14 50"/>
    <busStop id="-27329497" name="Kantonalbank" lane="-39447057#1_0" startPos="36.15" endPos="51.15" friendlyPos="true" lines="2 20 9 10 1 12 14"/>
    <busStop id="-300652646" name="Casino-Palace" lane="-364075852#6_0" startPos="7.35" endPos="22.35" friendlyPos="true" lines="6 8 24"/>
    <busStop id="-303097162" name="Schlösslihalde" lane="-27602527#2_0" startPos="55.49" endPos="70.49" friendlyPos="true" lines="14"/>
    <busStop id="-308898923" name="Steinhofrain" lane="-220487398#2_0" startPos="0.00" endPos="7.70" friendlyPos="true" lines="10"/>
    <busStop id="-311606391" name="Rönnimoosrain" lane="-19803517#2_0" startPos="66.91" endPos="81.91" friendlyPos="true" lines="30 12"/>
    <busStop id="-311606396" name="Längweiher" lane="-19803517#2_0" startPos="66.91" endPos="81.91" friendlyPos="true" lines="30 12"/>
    <busStop id="-333555694" name="Luzern" lane="-834322746_0" startPos="0.00" endPos="104.24" friendlyPos="true">
        <access lane="-378838597_0" pos="97.40" length="51.30" friendlyPos="1"/>
        <access lane="378838597_0" pos="2.74" length="46.46" friendlyPos="1"/>
        <access lane="94602911_0" pos="0.00" length="54.93" friendlyPos="1"/>
        <access lane="94721113#0_0" pos="20.85" length="55.88" friendlyPos="1"/>
        <access lane="94721113#2_0" pos="0.05" length="54.58" friendlyPos="1"/>
    </busStop>
    <busStop id="-333645308" name="Luzern" lane="-834322750_0" startPos="0.00" endPos="104.62" friendlyPos="true">
        <access lane="35964673_0" pos="0.33" length="54.75" friendlyPos="1"/>
        <access lane="378838597_0" pos="0.00" length="72.33" friendlyPos="1"/>
        <access lane="779101383_0" pos="0.00" length="67.04" friendlyPos="1"/>
        <access lane="94721108_0" pos="0.00" length="66.23" friendlyPos="1"/>
        <access lane="94721113#0_0" pos="0.00" length="54.91" friendlyPos="1"/>
    </busStop>
    <busStop id="-357455545" name="Geissmatthöhe" lane="-31909900#0_0" startPos="181.18" endPos="196.18" friendlyPos="true" lines="9"/>
    <busStop id="-357471926" name="Mühlemattstrasse" lane="-866030037#2_0" startPos="39.00" endPos="54.00" friendlyPos="true" lines="9"/>
    <busStop id="-364790072" name="Friedbergstrasse" lane="-135207193#0_0" startPos="17.64" endPos="32.64" friendlyPos="true" lines="9"/>
    <busStop id="-371753766" name="Reussport" lane="-436156037#0_0" startPos="0.00" endPos="11.02" friendlyPos="true" lines="19"/>
    <busStop id="-426860182" name="Grenzhof" lane="-19803517#2_0" startPos="0.00" endPos="7.50" friendlyPos="true" lines="12"/>
    <busStop id="-4441508552" name="Schiff" lane="-560703491#2_0" startPos="17.65" endPos="32.65" friendlyPos="true" lines="5 2"/>
    <busStop id="-472459433" name="Bundesplatz" lane="-305482859#0_0" startPos="35.29" endPos="45.30" friendlyPos="true" lines="4 6 8 7"/>
    <busStop id="-506671368" name="Werkhofstrasse" lane="-305482877#6_0" startPos="10.49" endPos="25.49" friendlyPos="true" lines="21 6 8 7"/>
    <busStop id="-598172343" name="Paulusplatz" lane="-386850954#2_0" startPos="2.58" endPos="17.58" friendlyPos="true" lines="20 1 14 5"/>
    <busStop id="-598172346" name="Moosegg" lane="-8428661#1_0" startPos="11.87" endPos="26.87" friendlyPos="true" lines="1 14 5"/>
    <busStop id="-7005106863@10330274" name="Luzern, Inseli" lane="-115953540#4_0" startPos="0.00" endPos="7.50" friendlyPos="true" lines="N33 1524 N401 417 497 K188 506"/>
    <busStop id="-7184667176" name="Obermättlistrasse" lane="-866204097_0" startPos="36.61" endPos="51.61" friendlyPos="true" lines="42 43"/>
    <busStop id="-7184667178" name="Waldstrasse" lane="-39074665#1_0" startPos="21.83" endPos="36.83" friendlyPos="true" lines="42 43"/>
    <busStop id="-7222804248" name="Luzern" lane="-834322753#0_0" startPos="231.80" endPos="336.65" friendlyPos="true">
        <access lane="-153756400_0" pos="0.00" length="65.54" friendlyPos="1"/>
        <access lane="153756400_0" pos="20.28" length="61.89" friendlyPos="1"/>
        <access lane="35964673_0" pos="0.00" length="58.33" friendlyPos="1"/>
        <access lane="35964674#0_0" pos="20.07" length="40.04" friendlyPos="1"/>
        <access lane="93724129_0" pos="0.00" length="55.25" friendlyPos="1"/>
    </busStop>
    <busStop id="-7248262541" name="Schlossberg" lane="-330757768#7_0" startPos="29.25" endPos="44.25" friendlyPos="true" lines="30 1"/>
    <busStop id="-7248262545" name="Weggismatt" lane="-330757768#7_0" startPos="64.75" endPos="79.75" friendlyPos="true" lines="30 1"/>
    <busStop id="-7248262564" name="St. Karli" lane="-866030035#0_0" startPos="18.60" endPos="33.60" friendlyPos="true" lines="30 9 19"/>
    <busStop id="-7248262568" name="Blattenmoos" lane="-19803517#2_0" startPos="66.91" endPos="81.91" friendlyPos="true" lines="30"/>
    <busStop id="-7274331909" name="Kantonalbank" lane="-772705478_0" startPos="0.00" endPos="13.79" friendlyPos="true" lines="4 6 21 8 7"/>
    <busStop id="-7274331913" name="Brünigstrasse" lane="-305482861#2_0" startPos="57.59" endPos="71.66" friendlyPos="true" lines="4"/>
    <busStop id="-7276028335" name="Gütsch" lane="-43418075#1_0" startPos="23.48" endPos="38.48" friendlyPos="true" lines="5 2 12"/>
    <busStop id="-7276028336" name="Fluhmühle" lane="-94721106#4_0" startPos="70.28" endPos="85.28" friendlyPos="true" lines="5 2"/>
    <busStop id="-7276082784" name="Kreuzstutz" lane="-43418075#8_0" startPos="0.00" endPos="10.81" friendlyPos="true" lines="5 2"/>
    <busStop id="-7279189827" name="Felsberg" lane="-134989549#9_0" startPos="37.16" endPos="52.16" friendlyPos="true" lines="7"/>
    <busStop id="-7908898589" name="Luzern" lane="-834322754_0" startPos="0.00" endPos="113.36" friendlyPos="true">
        <access lane="-30808995#5_0" pos="2.48" length="28.47" friendlyPos="1"/>
        <access lane="-30808995#7_0" pos="77.31" length="35.15" friendlyPos="1"/>
        <access lane="30596345#0_0" pos="60.44" length="38.81" friendlyPos="1"/>
        <access lane="30808995#3_0" pos="87.99" length="23.67" friendlyPos="1"/>
        <access lane="30808995#6_0" pos="0.00" length="31.40" friendlyPos="1"/>
    </busStop>
    <busStop id="-7908898590" name="Luzern" lane="-834322755_0" startPos="134.22" endPos="247.50" friendlyPos="true">
        <access lane="-30808995#5_0" pos="2.17" length="22.95" friendlyPos="1"/>
        <access lane="-30808995#7_0" pos="77.31" length="30.53" friendlyPos="1"/>
        <access lane="30596345#0_0" pos="60.44" length="33.45" friendlyPos="1"/>
        <access lane="30808995#3_0" pos="88.31" length="18.15" friendlyPos="1"/>
        <access lane="30808995#6_0" pos="0.00" length="27.12" friendlyPos="1"/>
    </busStop>
    <busStop id="-845290448" name="Obergütschhalde" lane="-108358756#10_0" startPos="13.91" endPos="28.91" friendlyPos="true" lines="10"/>
    <busStop id="-866201047" name="Steinhofstrasse" lane="-28050002_0" startPos="21.47" endPos="36.47" friendlyPos="true" lines="10"/>
    <busStop id="-866201055" name="Untergütsch" lane="-49302771#3_0" startPos="8.12" endPos="23.12" friendlyPos="true" lines="10"/>
    <busStop id="-866201060" name="Panoramic View" lane="-49302769_0" startPos="94.34" endPos="109.34" friendlyPos="true" lines="10"/>
    <busStop id="-866201064" name="Berglistrasse" lane="-49303772#1_0" startPos="0.00" endPos="14.29" friendlyPos="true" lines="10"/>
    <busStop id="-9442245040" name="Obergütschrain" lane="-108358756#10_0" startPos="108.99" endPos="123.99" friendlyPos="true" lines="10"/>
    <busStop id="-9442245063" name="Obergütschstrasse" lane="-108358756#5_0" startPos="70.49" endPos="85.49" friendlyPos="true" lines="10"/>
    <busStop id="-984023516" name="Klinik St. Anna" lane="-27582119#3_0" startPos="34.31" endPos="49.31" friendlyPos="true" lines="14"/>
    <busStop id="-984023532" name="Haldensteig" lane="-364075852#6_0" startPos="7.35" endPos="22.35" friendlyPos="true" lines="73 6 8"/>
    <busStop id="-984023828" name="Gärtnerstrasse" lane="-27603102#5_0" startPos="3.50" endPos="18.50" friendlyPos="true" lines="14"/>
    <busStop id="-984024066" name="Urnerhof" lane="-887914950#2_0" startPos="179.31" endPos="194.31" friendlyPos="true" lines="30 19"/>
    <busStop id="-984024077" name="Europe" lane="-80446534_0" startPos="23.47" endPos="38.47" friendlyPos="true" lines="6 8"/>
    <busStop id="-984024083" name="Brüggligasse" lane="-53620026_0" startPos="23.00" endPos="38.00" friendlyPos="true" lines="9"/>
    <busStop id="-984024084" name="Bramberg" lane="-96095209_0" startPos="2.79" endPos="17.79" friendlyPos="true" lines="9"/>
    <busStop id="-984024105" name="Blattenmoos" lane="-19803517#2_0" startPos="66.91" endPos="81.91" friendlyPos="true" lines="12"/>
    <busStop id="-984024117" name="Rosenberg" lane="-22385351#4_0" startPos="15.73" endPos="30.73" friendlyPos="true" lines="30 19"/>
    <busStop id="-984024118" name="Lützelmattstrasse" lane="-27582119#3_0" startPos="34.31" endPos="49.31" friendlyPos="true" lines="14"/>
    <busStop id="-984024126" name="Konservatorium" lane="-27603102#0_0" startPos="14.25" endPos="29.25" friendlyPos="true" lines="14"/>
    <busStop id="-984024152" name="Hirzenhof" lane="-95094998#1_0" startPos="0.00" endPos="7.89" friendlyPos="true" lines="9 2 12 5"/>
    <busStop id="-984024292" name="Zähringerstrasse" lane="-4496451#4_0" startPos="0.00" endPos="9.88" friendlyPos="true" lines="10"/>
    <busStop id="-984739217" name="Leumatt" lane="-27602528#1_0" startPos="6.57" endPos="21.57" friendlyPos="true" lines="14"/>
    <busStop id="-984739234" name="Rigistrasse" lane="-27582119#5_0" startPos="13.16" endPos="28.16" friendlyPos="true" lines="14"/>
    <busStop id="-984739332" name="Schlösslirain" lane="-27602527#2_0" startPos="366.89" endPos="381.89" friendlyPos="true" lines="14"/>
    <busStop id="1002463599" name="Luzern" lane="86320760_0" startPos="0.00" endPos="132.42" friendlyPos="true" lines="S3 S99">
        <access lane="-378838597_0" pos="85.66" length="50.46" friendlyPos="1"/>
        <access lane="378838597_0" pos="15.73" length="45.66" friendlyPos="1"/>
        <access lane="94602911_0" pos="0.21" length="55.49" friendlyPos="1"/>
        <access lane="94602990_0" pos="0.27" length="54.09" friendlyPos="1"/>
        <access lane="94603047_0" pos="0.00" length="54.87" friendlyPos="1"/>
    </busStop>
    <busStop id="1002465031" name="Luzern" lane="118745125_0" startPos="0.00" endPos="104.80" friendlyPos="true" lines="S1">
        <access lane="153756400_0" pos="20.28" length="67.30" friendlyPos="1"/>
        <access lane="35964673_0" pos="0.00" length="55.98" friendlyPos="1"/>
        <access lane="35964674#0_0" pos="20.07" length="47.15" friendlyPos="1"/>
        <access lane="93724129_0" pos="0.00" length="62.33" friendlyPos="1"/>
        <access lane="94721113#0_0" pos="0.00" length="64.64" friendlyPos="1"/>
    </busStop>
    <busStop id="1002465533" name="Luzern" lane="86320371_0" startPos="108.55" endPos="308.55" friendlyPos="true" lines="S6">
        <access lane="35964673_0" pos="0.33" length="53.88" friendlyPos="1"/>
        <access lane="35964674#0_0" pos="20.05" length="64.93" friendlyPos="1"/>
        <access lane="779101383_0" pos="0.00" length="67.37" friendlyPos="1"/>
        <access lane="94721108_0" pos="0.00" length="67.56" friendlyPos="1"/>
        <access lane="94721113#0_0" pos="0.00" length="56.87" friendlyPos="1"/>
    </busStop>
    <busStop id="1002465535" name="Luzern" lane="86320356#1_0" startPos="0.00" endPos="154.34" friendlyPos="true">
        <access lane="-378838597_0" pos="97.40" length="64.06" friendlyPos="1"/>
        <access lane="35964673_0" pos="0.33" length="61.23" friendlyPos="1"/>
        <access lane="378838597_0" pos="2.70" length="59.02" friendlyPos="1"/>
        <access lane="94721113#0_0" pos="6.05" length="54.13" friendlyPos="1"/>
        <access lane="94721113#2_0" pos="0.00" length="64.10" friendlyPos="1"/>
    </busStop>
    <busStop id="1002466274" name="Luzern" lane="86320713_0" startPos="0.00" endPos="115.24" friendlyPos="true" lines="EC 151">
        <access lane="-378838597_0" pos="97.40" length="52.36" friendlyPos="1"/>
        <access lane="378838597_0" pos="2.70" length="47.30" friendlyPos="1"/>
        <access lane="94602911_0" pos="0.00" length="56.43" friendlyPos="1"/>
        <access lane="94721113#0_0" pos="20.85" length="54.67" friendlyPos="1"/>
        <access lane="94721113#2_0" pos="0.00" length="54.93" friendlyPos="1"/>
    </busStop>
    <busStop id="1088752236" name="Luzern Bahnhof" lane="94602944_0" startPos="0.00" endPos="7.50" friendlyPos="true" lines="PE"/>
    <busStop id="1096064551" name="Kantonsspital" lane="22386331#2_0" startPos="28.07" endPos="43.07" friendlyPos="true" lines="30 9 19"/>
    <busStop id="1096064553" name="Hirzenhof" lane="95094998#0_0" startPos="77.35" endPos="85.60" friendlyPos="true" lines="5 2 9 10 12"/>
    <busStop id="1096064554" name="Luzernerhof" lane="134989591#0_0" startPos="21.18" endPos="34.73" friendlyPos="true" lines="6 8 24"/>
    <busStop id="1096064557" name="Kreuzstutz" lane="135572695#2_0" startPos="7.56" endPos="22.56" friendlyPos="true">
        <access lane="-135207220#3_0" pos="281.86" length="22.47" friendlyPos="1"/>
        <access lane="-267492224#1_0" pos="0.00" length="22.42" friendlyPos="1"/>
        <access lane="-32997890_0" pos="0.00" length="21.41" friendlyPos="1"/>
        <access lane="32997887_0" pos="446.03" length="17.94" friendlyPos="1"/>
        <access lane="32997890_0" pos="0.90" length="17.06" friendlyPos="1"/>
    </busStop>
    <busStop id="1098133697" name="Luzernerhof" lane="94522261_0" startPos="15.61" endPos="30.61" friendlyPos="true" lines="73 6 8 24"/>
    <busStop id="1098191319" name="Konservatorium" lane="27601327#2_0" startPos="70.75" endPos="85.32" friendlyPos="true" lines="14"/>
    <busStop id="1098191373" name="Gärtnerstrasse" lane="27603102#6_0" startPos="14.64" endPos="29.64" friendlyPos="true" lines="14"/>
    <busStop id="1098666350" name="Luzern Bahnhof" lane="94602935_0" startPos="22.99" endPos="30.49" friendlyPos="true" lines="20"/>
    <busStop id="1098666400" name="Luzern Bahnhof" lane="93752639_0" startPos="13.63" endPos="26.40" friendlyPos="true" lines="19"/>
    <busStop id="1099807926" name="Kreuzstutz" lane="190192157#8_0" startPos="93.88" endPos="108.88" friendlyPos="true" lines="30 12"/>
    <busStop id="1099807979" name="Kreuzstutz" lane="1013074041#0_0" startPos="0.00" endPos="12.69" friendlyPos="true">
        <access lane="-190192157#10_0" pos="0.00" length="40.65" friendlyPos="1"/>
        <access lane="-267492224#1_0" pos="48.10" length="50.17" friendlyPos="1"/>
        <access lane="190192157#8_0" pos="176.85" length="45.08" friendlyPos="1"/>
        <access lane="314810602#0_0" pos="428.44" length="49.99" friendlyPos="1"/>
        <access lane="32997887_0" pos="397.92" length="45.37" friendlyPos="1"/>
    </busStop>
    <busStop id="1099877607" name="Luzern Bahnhof" lane="779101387#0_0" startPos="0.00" endPos="8.98" friendlyPos="true" lines="9"/>
    <busStop id="1099877676" name="Grenzhof" lane="36723787#0_0" startPos="5.13" endPos="20.13" friendlyPos="true" lines="12"/>
    <busStop id="1099877714" name="Kanonenstrasse" lane="190192157#5_0" startPos="5.47" endPos="20.47" friendlyPos="true" lines="30 12"/>
    <busStop id="1132161194" name="Sonnenbergstrasse" lane="220487398#3_0" startPos="7.79" endPos="22.79" friendlyPos="true" lines="10 11"/>
    <busStop id="1165748197" name="Schwanenplatz" lane="100873454#0_0" startPos="42.86" endPos="57.86" friendlyPos="true" lines="73 14 1 19 6 8 7 24"/>
    <busStop id="1165748363" name="Wey" lane="134989595#2_0" startPos="3.42" endPos="18.42" friendlyPos="true" lines="14 7"/>
    <busStop id="1398732992" name="Luzern Verkehrshaus" lane="103893220_0" startPos="165.78" endPos="365.78" friendlyPos="true">
        <access lane="-27602296#9_0" pos="122.27" length="80.41" friendlyPos="1"/>
        <access lane="27602296#6_0" pos="396.55" length="75.61" friendlyPos="1"/>
        <access lane="283174676#1_0" pos="188.61" length="37.91" friendlyPos="1"/>
        <access lane="283174677#0_0" pos="108.09" length="23.70" friendlyPos="1"/>
    </busStop>
    <busStop id="1398733007" name="Luzern Verkehrshaus" lane="126092202_0" startPos="165.69" endPos="365.69" friendlyPos="true" lines="VAE S3">
        <access lane="-27602296#9_0" pos="120.67" length="74.06" friendlyPos="1"/>
        <access lane="27602296#6_0" pos="398.14" length="69.26" friendlyPos="1"/>
        <access lane="283174676#1_0" pos="188.35" length="44.68" friendlyPos="1"/>
        <access lane="283174677#0_0" pos="108.36" length="30.47" friendlyPos="1"/>
    </busStop>
    <busStop id="1483240180" name="Dreilinden" lane="134989549#1_0" startPos="0.00" endPos="13.33" friendlyPos="true" lines="7"/>
    <busStop id="1483240181" name="Kapuzinerweg" lane="72740995_0" startPos="150.13" endPos="165.13" friendlyPos="true" lines="14 7"/>
    <busStop id="1483240183" name="Luzernerhof" lane="94545446#0_0" startPos="21.64" endPos="36.64" friendlyPos="true" lines="14 1 19 7"/>
    <busStop id="1483240184" name="Luzernerhof" lane="94545447#1_0" startPos="25.28" endPos="40.28" friendlyPos="true" lines="1 19"/>
    <busStop id="1483240185" name="Löwenplatz" lane="134989604#4_0" startPos="4.07" endPos="19.07" friendlyPos="true" lines="1 19"/>
    <busStop id="1483240186" name="Pilatusplatz" lane="134989584#2_0" startPos="8.57" endPos="18.53" friendlyPos="true" lines="72 9 10 52 2 50 12 5 61"/>
    <busStop id="1483240188" name="Wey" lane="134989556#1_0" startPos="5.72" endPos="20.72" friendlyPos="true" lines="14 7"/>
    <busStop id="1485039490" name="Kloster" lane="135207223#0_0" startPos="24.15" endPos="39.15" friendlyPos="true" lines="7"/>
    <busStop id="1485039517" name="Maihofmatte-Rotsee" lane="330757768#0_0" startPos="220.83" endPos="235.83" friendlyPos="true" lines="30 1"/>
    <busStop id="1485039535" name="Morgenweg" lane="135207223#1_0" startPos="8.05" endPos="23.05" friendlyPos="true" lines="7"/>
    <busStop id="1485039575" name="Tiefe" lane="305482861#4_0" startPos="94.67" endPos="109.67" friendlyPos="true" lines="4"/>
    <busStop id="1485039604" name="Verkehrshaus/Lido" lane="283174676#1_0" startPos="0.00" endPos="13.76" friendlyPos="true" lines="6 8 24"/>
    <busStop id="2051794005" name="Luzern" lane="118745118_0" startPos="201.66" endPos="216.66" friendlyPos="true" lines="600 IR 26">
        <access lane="-378838597_0" pos="97.40" length="36.15" friendlyPos="1"/>
        <access lane="378838597_0" pos="2.70" length="31.04" friendlyPos="1"/>
        <access lane="94602911_0" pos="0.00" length="41.04" friendlyPos="1"/>
        <access lane="94721113#0_0" pos="18.42" length="33.33" friendlyPos="1"/>
        <access lane="94721113#2_0" pos="0.00" length="36.77" friendlyPos="1"/>
    </busStop>
    <busStop id="2051794005@7782644" name="Luzern" lane="118745107_0" startPos="0.00" endPos="7.50" friendlyPos="true" lines="IR 27 IR 15">
        <access lane="-378838597_0" pos="97.40" length="36.15" friendlyPos="1"/>
        <access lane="378838597_0" pos="2.70" length="31.04" friendlyPos="1"/>
        <access lane="94602911_0" pos="0.00" length="41.04" friendlyPos="1"/>
        <access lane="94721113#0_0" pos="18.42" length="33.33" friendlyPos="1"/>
        <access lane="94721113#2_0" pos="0.00" length="36.77" friendlyPos="1"/>
    </busStop>
    <busStop id="206372728" name="Längweiher" lane="19803517#0_0" startPos="696.95" endPos="711.95" friendlyPos="true" lines="30 12"/>
    <busStop id="206372731" name="Rönnimoosrain" lane="19803517#0_0" startPos="936.48" endPos="951.48" friendlyPos="true" lines="30 12"/>
    <busStop id="206381260" name="Luzern" lane="118745107_0" startPos="0.00" endPos="104.43" friendlyPos="true">
        <access lane="-378838597_0" pos="97.40" length="59.79" friendlyPos="1"/>
        <access lane="378838597_0" pos="2.70" length="54.65" friendlyPos="1"/>
        <access lane="94602911_0" pos="0.00" length="64.62" friendlyPos="1"/>
        <access lane="94721113#0_0" pos="11.11" length="54.19" friendlyPos="1"/>
        <access lane="94721113#2_0" pos="0.00" length="60.46" friendlyPos="1"/>
    </busStop>
    <busStop id="2117444912" name="Luzern Bahnhof" lane="53620033_0" startPos="17.88" endPos="32.88" friendlyPos="true" lines="6 8 7 14 1"/>
    <busStop id="27329561" name="Schwanenplatz" lane="134989591#1_0" startPos="39.67" endPos="54.67" friendlyPos="true" lines="73 6 14 1 19 8 7 24"/>
    <busStop id="28197903" name="Pilatusplatz" lane="397705245#0_0" startPos="0.00" endPos="11.68" friendlyPos="true" lines="5 20 71 14 11 1"/>
    <busStop id="2870822828" name="Verkehrshaus/Lido" lane="283174677#0_0" startPos="13.36" endPos="28.36" friendlyPos="true" lines="6 8 24"/>
    <busStop id="300652646" name="Casino-Palace" lane="364075852#0_0" startPos="96.10" endPos="111.10" friendlyPos="true" lines="6 8 24"/>
    <busStop id="303097162" name="Schlösslihalde" lane="27602527#2_0" startPos="652.03" endPos="667.03" friendlyPos="true" lines="14"/>
    <busStop id="307533429" name="Luzern, Utenberg" lane="95094994#3_0" startPos="27.00" endPos="52.00" friendlyPos="true"/>