<configuration>
    <input>
        <net-file value="../nets/hello.net.xml"/>
        <route-files value="../routes/hello.rou.xml"/>
        <gui-settings-file value="../settings/hello.settings.xml"/>
    </input>
    <time>
        <begin value="0"/>
        <end value="10000"/>
    </time>
</configuration>