<?xml version="1.0" encoding="UTF-8"?>

<!-- generated on 2022-03-03 22:36:31 by Eclipse SUMO duarouter Version 1.12.0
<configuration xmlns:xsi="http://www.w3.org/2001/XMLSchema-instance" xsi:noNamespaceSchemaLocation="http://sumo.dlr.de/xsd/duarouterConfiguration.xsd">

    <input>
        <net-file value="C:\Users\simon\Sumo\2022-03-03-22-35-46\osm.net.xml"/>
        <route-files value="C:\Users\simon\Sumo\2022-03-03-22-35-46\osm.passenger.trips.xml"/>
    </input>

    <output>
        <output-file value="C:\Users\simon\Sumo\2022-03-03-22-35-46\osm.passenger.trips.xml.tmp"/>
        <write-trips value="true"/>
    </output>

    <time>
        <begin value="0"/>
        <end value="3600"/>
    </time>

    <report>
        <no-warnings value="true"/>
        <ignore-errors value="true"/>
        <no-step-log value="true"/>
    </report>

</configuration>
-->

<routes xmlns:xsi="http://www.w3.org/2001/XMLSchema-instance" xsi:noNamespaceSchemaLocation="http://sumo.dlr.de/xsd/routes_file.xsd">
    <vType id="veh_passenger" vClass="passenger"/>
    <trip id="veh0" type="veh_passenger" depart="0.00" departLane="best" from="192387755#2" to="-158076912#0"/>
    <trip id="veh1" type="veh_passenger" depart="1.94" departLane="best" from="-4725955#10" to="-25489544#6"/>
    <trip id="veh2" type="veh_passenger" depart="3.88" departLane="best" from="301072836#1" to="236009754#6"/>
    <trip id="veh3" type="veh_passenger" depart="5.81" departLane="best" from="759621734#4" to="-166922747"/>
    <trip id="veh4" type="veh_passenger" depart="7.75" departLane="best" from="-917938182#3" to="-158076912#19"/>
    <trip id="veh5" type="veh_passenger" depart="9.69" departLane="best" from="-236879290#3" to="124245289#3"/>
    <trip id="veh6" type="veh_passenger" depart="11.63" departLane="best" from="-158076912#18" to="-236014016#3"/>
    <trip id="veh7" type="veh_passenger" depart="13.57" departLane="best" from="192441033#9" to="158750174#2"/>
    <trip id="veh8" type="veh_passenger" depart="15.51" departLane="best" from="-236881372#0" to="166973993#1"/>
    <trip id="veh9" type="veh_passenger" depart="17.44" departLane="best" from="5151469#7" to="-10741430#2"/>
    <trip id="veh10" type="veh_passenger" depart="19.38" departLane="best" from="5067678#4" to="236012137#1"/>
    <trip id="veh11" type="veh_passenger" depart="21.32" departLane="best" from="-543077767#3" to="-192441033#6"/>
    <trip id="veh12" type="veh_passenger" depart="23.26" departLane="best" departSpeed="max" from="942661081" to="-5645802#3"/>
    <trip id="veh13" type="veh_passenger" depart="25.20" departLane="best" from="-166946439#4" to="-167038066#2"/>
    <trip id="veh14" type="veh_passenger" depart="27.13" departLane="best" from="5067678#9" to="25489548#2"/>
    <trip id="veh15" type="veh_passenger" depart="29.07" departLane="best" from="158076927#2" to="966751715#1"/>
    <trip id="veh16" type="veh_passenger" depart="31.01" departLane="best" from="-65428195#4" to="158750187#23"/>
    <trip id="veh17" type="veh_passenger" depart="32.95" departLane="best" from="552301811" to="168959333#2"/>
    <trip id="veh18" type="veh_passenger" depart="34.89" departLane="best" from="572922843#2" to="165586281#0"/>
    <trip id="veh19" type="veh_passenger" depart="36.83" departLane="best" from="236881373#3" to="-158076931#4"/>
    <trip id="veh20" type="veh_passenger" depart="38.76" departLane="best" from="-236887916#5" to="-4997938#9"/>
    <trip id="veh21" type="veh_passenger" depart="40.70" departLane="best" from="-165575991#1" to="-289694835#4"/>
    <trip id="veh22" type="veh_passenger" depart="42.64" departLane="best" from="-167038066#0" to="-4862344#4"/>
    <trip id="veh23" type="veh_passenger" depart="44.58" departLane="best" from="192249859#8" to="-572922843#3"/>
    <trip id="veh24" type="veh_passenger" depart="46.52" departLane="best" from="-5729580" to="-236881372#3"/>
    <trip id="veh25" type="veh_passenger" depart="48.45" departLane="best" from="192441032#1" to="168103624#1"/>
    <trip id="veh26" type="veh_passenger" depart="50.39" departLane="best" from="-236009643#10" to="25489548#0"/>
    <trip id="veh27" type="veh_passenger" depart="52.33" departLane="best" from="-192441033#8" to="-65429630#8"/>
    <trip id="veh28" type="veh_passenger" depart="54.27" departLane="best" from="968241078#3" to="192249854#1"/>
    <trip id="veh29" type="veh_passenger" depart="56.21" departLane="best" from="165499989#2" to="236011373#1"/>
    <trip id="veh30" type="veh_passenger" depart="58.15" departLane="best" from="570551546#0" to="4725957#9"/>
    <trip id="veh31" type="veh_passenger" depart="60.08" departLane="best" from="-239072654#2" to="-158076912#4"/>
    <trip id="veh32" type="veh_passenger" depart="62.02" departLane="best" from="-5067676#2" to="-4734818#1"/>
    <trip id="veh33" type="veh_passenger" depart="63.96" departLane="best" from="-236014016#3" to="927244742#1"/>
    <trip id="veh34" type="veh_passenger" depart="65.90" departLane="best" from="65429630#8" to="-5151470#12"/>
    <trip id="veh35" type="veh_passenger" depart="67.84" departLane="best" from="236009641#5" to="-76764219#0"/>
    <trip id="veh36" type="veh_passenger" depart="69.77" departLane="best" from="912835607#1" to="-943325528#2"/>
    <trip id="veh37" type="veh_passenger" depart="71.71" departLane="best" from="-419477580#1" to="-323903988#0"/>
    <trip id="veh38" type="veh_passenger" depart="73.65" departLane="best" from="165547722#1" to="-4725955#8"/>
    <trip id="veh39" type="veh_passenger" depart="75.59" departLane="best" from="167008626#2" to="759621734#6"/>
    <trip id="veh40" type="veh_passenger" depart="77.53" departLane="best" from="-76764219#1" to="-239072654#0"/>
    <trip id="veh41" type="veh_passenger" depart="79.47" departLane="best" from="973127082" to="150696322#1"/>
    <trip id="veh42" type="veh_passenger" depart="81.40" departLane="best" from="-166922746#0" to="-158076935#5"/>
    <trip id="veh43" type="veh_passenger" depart="83.34" departLane="best" from="-167180779#3" to="183148424#0"/>
    <trip id="veh44" type="veh_passenger" depart="85.28" departLane="best" from="5009515#4" to="-924426351"/>
    <trip id="veh45" type="veh_passenger" depart="87.22" departLane="best" departSpeed="max" from="-159637715#5" to="-655372098#2"/>
    <trip id="veh46" type="veh_passenger" depart="89.16" departLane="best" from="973113653#3" to="158076912#8"/>
    <trip id="veh47" type="veh_passenger" depart="91.10" departLane="best" from="966532410" to="572749992#3"/>
    <trip id="veh48" type="veh_passenger" depart="93.03" departLane="best" from="-124245433" to="236887916#3"/>
    <trip id="veh49" type="veh_passenger" depart="94.97" departLane="best" from="236011374#6" to="158076927#1"/>
    <trip id="veh50" type="veh_passenger" depart="96.91" departLane="best" from="-419477649" to="192249859#1"/>
    <trip id="veh51" type="veh_passenger" depart="98.85" departLane="best" from="-167984107#0" to="-927785317"/>
    <trip id="veh52" type="veh_passenger" depart="100.79" departLane="best" from="-942942359#0" to="938892173#11"/>
    <trip id="veh53" type="veh_passenger" depart="102.72" departLane="best" from="65429630#4" to="-4725957#0"/>
    <trip id="veh54" type="veh_passenger" depart="104.66" departLane="best" from="10741430#0" to="-236011369#1"/>
    <trip id="veh55" type="veh_passenger" depart="106.60" departLane="best" from="882846009#5" to="573311824#2"/>
    <trip id="veh56" type="veh_passenger" depart="108.54" departLane="best" from="-4997938#2" to="192249849#8"/>
    <trip id="veh57" type="veh_passenger" depart="110.48" departLane="best" from="168603709#8" to="-192417396#6"/>
    <trip id="veh58" type="veh_passenger" depart="112.42" departLane="best" from="4725957#7" to="158076928#0"/>
    <trip id="veh59" type="veh_passenger" depart="114.35" departLane="best" from="4947963#1" to="158076917#1"/>
    <trip id="veh60" type="veh_passenger" depart="116.29" departLane="best" from="-10741428#11" to="-543068076#2"/>
    <trip id="veh61" type="veh_passenger" depart="118.23" departLane="best" from="-158076908#20" to="917960747#2"/>
    <trip id="veh62" type="veh_passenger" depart="120.17" departLane="best" from="655372102#0" to="543068076#4"/>
    <trip id="veh63" type="veh_passenger" depart="122.11" departLane="best" from="-5009516#11" to="-158750200#11"/>
    <trip id="veh64" type="veh_passenger" depart="124.04" departLane="best" from="655372098#0" to="927785326#3"/>
    <trip id="veh65" type="veh_passenger" depart="125.98" departLane="best" from="-166917658#0" to="-968241078#7"/>
    <trip id="veh66" type="veh_passenger" depart="127.92" departLane="best" from="-165547714#9" to="419477580#3"/>
    <trip id="veh67" type="veh_passenger" depart="129.86" departLane="best" departSpeed="max" from="4862318#0" to="-183451127#1"/>
    <trip id="veh68" type="veh_passenger" depart="131.80" departLane="best" from="-967852791#1" to="158750187#15"/>
    <trip id="veh69" type="veh_passenger" depart="133.74" departLane="best" from="-419477580#1" to="594175176#2"/>
    <trip id="veh70" type="veh_passenger" depart="135.67" departLane="best" from="-917960747#3" to="-236881374#1"/>
    <trip id="veh71" type="veh_passenger" depart="137.61" departLane="best" from="158076931#2" to="25489548#2"/>
    <trip id="veh72" type="veh_passenger" depart="139.55" departLane="best" from="-236011817#1" to="-5151469#3"/>
    <trip id="veh73" type="veh_passenger" depart="141.49" departLane="best" from="973113653#0" to="192417389#4"/>
    <trip id="veh74" type="veh_passenger" depart="143.43" departLane="best" from="-927244754" to="158076912#0"/>
    <trip id="veh75" type="veh_passenger" depart="145.36" departLane="best" from="-543077762#0" to="166946439#5"/>
    <trip id="veh76" type="veh_passenger" depart="147.30" departLane="best" from="-239074576#3" to="-239072654#3"/>
    <trip id="veh77" type="veh_passenger" depart="149.24" departLane="best" from="-165547723#3" to="183451139#11"/>
    <trip id="veh78" type="veh_passenger" depart="151.18" departLane="best" from="-239072654#2" to="830074189#5"/>
    <trip id="veh79" type="veh_passenger" depart="153.12" departLane="best" from="572922814#4" to="-165575981#3"/>
    <trip id="veh80" type="veh_passenger" depart="155.06" departLane="best" from="-25759550#2" to="236009648#0"/>
    <trip id="veh81" type="veh_passenger" depart="156.99" departLane="best" from="-236014020#6" to="-183451145#0"/>
    <trip id="veh82" type="veh_passenger" depart="158.93" departLane="best" from="925210396#2" to="165575981#7"/>
    <trip id="veh83" type="veh_passenger" depart="160.87" departLane="best" from="-967616068#0" to="4862344#3"/>
    <trip id="veh84" type="veh_passenger" depart="162.81" departLane="best" from="5151469#0" to="-236011817#0"/>
    <trip id="veh85" type="veh_passenger" depart="164.75" departLane="best" from="-167008627#14" to="-925266349"/>
    <trip id="veh86" type="veh_passenger" depart="166.68" departLane="best" from="-917960748#3" to="-966769840#0"/>
    <trip id="veh87" type="veh_passenger" depart="168.62" departLane="best" departSpeed="max" from="289694843#0" to="236009654#1"/>
    <trip id="veh88" type="veh_passenger" depart="170.56" departLane="best" from="967879909#2" to="-167038068#0"/>
    <trip id="veh89" type="veh_passenger" depart="172.50" departLane="best" from="-830074189#13" to="-570092428#2"/>
    <trip id="veh90" type="veh_passenger" depart="174.44" departLane="best" from="572922843#2" to="-374737109#1"/>
    <trip id="veh91" type="veh_passenger" depart="176.38" departLane="best" from="-236011371#1" to="-938892268#2"/>
    <trip id="veh92" type="veh_passenger" depart="178.31" departLane="best" from="-917938182#3" to="-4862344#6"/>
    <trip id="veh93" type="veh_passenger" depart="180.25" departLane="best" departSpeed="max" from="-301072865#2" to="915560800#1"/>
    <trip id="veh94" type="veh_passenger" depart="182.19" departLane="best" from="-932510262#0" to="572922757#0"/>
    <trip id="veh95" type="veh_passenger" depart="184.13" departLane="best" from="158750187#26" to="-158750181#0"/>
    <trip id="veh96" type="veh_passenger" depart="186.07" departLane="best" from="973579804#2" to="543077765#1"/>
    <trip id="veh97" type="veh_passenger" depart="188.00" departLane="best" from="966199532" to="916802632#0"/>
    <trip id="veh98" type="veh_passenger" depart="189.94" departLane="best" from="570787357" to="-236009644#0"/>
    <trip id="veh99" type="veh_passenger" depart="191.88" departLane="best" from="-971950827#1" to="-236881378#1"/>
    <trip id="veh100" type="veh_passenger" depart="193.82" departLane="best" from="-800505669#3" to="-158750200#3"/>
    <trip id="veh101" type="veh_passenger" depart="195.76" departLane="best" from="-65428195#5" to="967915073#0"/>
    <trip id="veh102" type="veh_passenger" depart="197.70" departLane="best" from="-419477580#2" to="4862344#1"/>
    <trip id="veh103" type="veh_passenger" depart="199.63" departLane="best" from="-942942359#3" to="-924426409"/>
    <trip id="veh104" type="veh_passenger" depart="201.57" departLane="best" departSpeed="max" from="942661081" to="973113653#6"/>
    <trip id="veh105" type="veh_passenger" depart="203.51" departLane="best" from="165499987#0" to="236881378#4"/>
    <trip id="veh106" type="veh_passenger" depart="205.45" departLane="best" from="-192417388#3" to="-5009516#11"/>
    <trip id="veh107" type="veh_passenger" depart="207.39" departLane="best" from="965966206#4" to="165586281#3"/>
    <trip id="veh108" type="veh_passenger" depart="209.32" departLane="best" from="158750174#2" to="301072894#3"/>
    <trip id="veh109" type="veh_passenger" depart="211.26" departLane="best" from="-158750187#23" to="166917663"/>
    <trip id="veh110" type="veh_passenger" depart="213.20" departLane="best" departSpeed="max" from="10741433" to="570551609"/>
    <trip id="veh111" type="veh_passenger" depart="215.14" departLane="best" from="-192417390#2" to="942942359#6"/>
    <trip id="veh112" type="veh_passenger" depart="217.08" departLane="best" from="-165575991#2" to="-236011373#9"/>
    <trip id="veh113" type="veh_passenger" depart="219.02" departLane="best" from="167038070#3" to="236009754#10"/>
    <trip id="veh114" type="veh_passenger" depart="220.95" departLane="best" from="-25489547#7" to="-168986925#4"/>
    <trip id="veh115" type="veh_passenger" depart="222.89" departLane="best" from="759621734#1" to="-316882791#5"/>
    <trip id="veh116" type="veh_passenger" depart="224.83" departLane="best" from="167038070#2" to="168959333#2"/>
    <trip id="veh117" type="veh_passenger" depart="226.77" departLane="best" from="-916802611#1" to="166917662"/>
    <trip id="veh118" type="veh_passenger" depart="228.71" departLane="best" from="158076912#17" to="924797381#2"/>
    <trip id="veh119" type="veh_passenger" depart="230.64" departLane="best" departSpeed="max" from="-236012136#2" to="236881373#4"/>
    <trip id="veh120" type="veh_passenger" depart="232.58" departLane="best" from="-25759550#6" to="-76764219#0"/>
    <trip id="veh121" type="veh_passenger" depart="234.52" departLane="best" from="236009819#3" to="-5009517"/>
    <trip id="veh122" type="veh_passenger" depart="236.46" departLane="best" from="-5067676#4" to="323903988#5"/>
    <trip id="veh123" type="veh_passenger" depart="238.40" departLane="best" from="-165575979" to="-943325528#0"/>
    <trip id="veh124" type="veh_passenger" depart="240.34" departLane="best" from="973127083#3" to="973127082"/>
    <trip id="veh125" type="veh_passenger" depart="242.27" departLane="best" from="-165575980#2" to="-236881376"/>
    <trip id="veh126" type="veh_passenger" depart="244.21" departLane="best" from="-419477580#2" to="924426502#0"/>
    <trip id="veh127" type="veh_passenger" depart="246.15" departLane="best" from="655394164#1" to="65429630#1"/>
    <trip id="veh128" type="veh_passenger" depart="248.09" departLane="best" from="-5729579#1" to="-192441035#1"/>
    <trip id="veh129" type="veh_passenger" depart="250.03" departLane="best" from="5645808#1" to="236014016#2"/>
    <trip id="veh130" type="veh_passenger" depart="251.97" departLane="best" from="168959332#2" to="968157741#6"/>
    <trip id="veh131" type="veh_passenger" depart="253.90" departLane="best" from="236007387#0" to="-10741433"/>
    <trip id="veh132" type="veh_passenger" depart="255.84" departLane="best" from="5184504#4" to="-5009516#9"/>
    <trip id="veh133" type="veh_passenger" depart="257.78" departLane="best" from="236009652#3" to="925266478#1"/>
    <trip id="veh134" type="veh_passenger" depart="259.72" departLane="best" from="-183148424#1" to="-168603709#9"/>
    <trip id="veh135" type="veh_passenger" depart="261.66" departLane="best" from="-167038075" to="158750187#4"/>
    <trip id="veh136" type="veh_passenger" depart="263.59" departLane="best" from="-4718274#7" to="167180779#2"/>
    <trip id="veh137" type="veh_passenger" depart="265.53" departLane="best" from="25489545#0" to="-236014937#1"/>
    <trip id="veh138" type="veh_passenger" depart="267.47" departLane="best" from="192249859#2" to="-4725957#10"/>
    <trip id="veh139" type="veh_passenger" depart="269.41" departLane="best" from="-973113653#2" to="830074189#3"/>
    <trip id="veh140" type="veh_passenger" depart="271.35" departLane="best" from="-917960748#3" to="-4862344#0"/>
    <trip id="veh141" type="veh_passenger" depart="273.29" departLane="best" from="-10741429#11" to="4725955#8"/>
    <trip id="veh142" type="veh_passenger" depart="275.22" departLane="best" from="192387753#5" to="-4725955#3"/>
    <trip id="veh143" type="veh_passenger" depart="277.16" departLane="best" from="316882791#5" to="158750187#22"/>
    <trip id="veh144" type="veh_passenger" depart="279.10" departLane="best" from="-924426525#1" to="-10756544#2"/>
    <trip id="veh145" type="veh_passenger" depart="281.04" departLane="best" from="-165575981#7" to="655372102#0"/>
    <trip id="veh146" type="veh_passenger" depart="282.98" departLane="best" from="830074199#2" to="158750174#4"/>
    <trip id="veh147" type="veh_passenger" depart="284.91" departLane="best" from="5645808#7" to="166917660#1"/>
    <trip id="veh148" type="veh_passenger" depart="286.85" departLane="best" from="-192249859#5" to="-183451123#0"/>
    <trip id="veh149" type="veh_passenger" depart="288.79" departLane="best" from="-5009516#14" to="76177876#3"/>
    <trip id="veh150" type="veh_passenger" depart="290.73" departLane="best" from="5009516#8" to="572749992#2"/>
    <trip id="veh151" type="veh_passenger" depart="292.67" departLane="best" from="800505671#1" to="-236881373#0"/>
    <trip id="veh152" type="veh_passenger" depart="294.61" departLane="best" departSpeed="max" from="-301072865#2" to="-167048398#0"/>
    <trip id="veh153" type="veh_passenger" depart="296.54" departLane="best" from="4947972#2" to="655372102#3"/>
    <trip id="veh154" type="veh_passenger" depart="298.48" departLane="best" from="-830074199#2" to="168986925#4"/>
    <trip id="veh155" type="veh_passenger" depart="300.42" departLane="best" from="-192417388#2" to="917960748#3"/>
    <trip id="veh156" type="veh_passenger" depart="302.36" departLane="best" from="5729581#2" to="967286663#6"/>
    <trip id="veh157" type="veh_passenger" depart="304.30" departLane="best" from="5151470#11" to="655372097#0"/>
    <trip id="veh158" type="veh_passenger" depart="306.23" departLane="best" from="-158076912#15" to="289694843#3"/>
    <trip id="veh159" type="veh_passenger" depart="308.17" departLane="best" from="5067675#2" to="572922814#4"/>
    <trip id="veh160" type="veh_passenger" depart="310.11" departLane="best" from="5151470#10" to="-4725957#4"/>
    <trip id="veh161" type="veh_passenger" depart="312.05" departLane="best" from="5002577#10" to="-167984108#0"/>
    <trip id="veh162" type="veh_passenger" depart="313.99" departLane="best" from="65428195#4" to="570787361#1"/>
    <trip id="veh163" type="veh_passenger" depart="315.93" departLane="best" from="-236881373#1" to="5067678#5"/>
    <trip id="veh164" type="veh_passenger" depart="317.86" departLane="best" from="-965966161" to="-5067675#1"/>
    <trip id="veh165" type="veh_passenger" depart="319.80" departLane="best" from="5009516#4" to="-25489547#7"/>
    <trip id="veh166" type="veh_passenger" depart="321.74" departLane="best" from="-158076912#12" to="-236012137#2"/>
    <trip id="veh167" type="veh_passenger" depart="323.68" departLane="best" from="-5151667#3" to="572922814#5"/>
    <trip id="veh168" type="veh_passenger" depart="325.62" departLane="best" from="192417388#6" to="-830074189#5"/>
    <trip id="veh169" type="veh_passenger" depart="327.55" departLane="best" from="967852588#1" to="158076925#2"/>
    <trip id="veh170" type="veh_passenger" depart="329.49" departLane="best" from="926825468#1" to="-168603709#9"/>
    <trip id="veh171" type="veh_passenger" depart="331.43" departLane="best" from="966236732#1" to="-236011369#1"/>
    <trip id="veh172" type="veh_passenger" depart="333.37" departLane="best" departSpeed="max" from="943325528#0" to="-4725957#17"/>
    <trip id="veh173" type="veh_passenger" depart="335.31" departLane="best" from="-167048398#6" to="-927244754"/>
    <trip id="veh174" type="veh_passenger" depart="337.25" departLane="best" from="289694841" to="-5151470#1"/>
    <trip id="veh175" type="veh_passenger" depart="339.18" departLane="best" from="168103624#8" to="150696322#7"/>
    <trip id="veh176" type="veh_passenger" depart="341.12" departLane="best" from="-655372098#2" to="165575992#0"/>
    <trip id="veh177" type="veh_passenger" depart="343.06" departLane="best" from="-316882791#2" to="236014937#1"/>
    <trip id="veh178" type="veh_passenger" depart="345.00" departLane="best" from="-10741428#5" to="916802611#1"/>
    <trip id="veh179" type="veh_passenger" depart="346.94" departLane="best" from="158076930#1" to="236887913#1"/>
    <trip id="veh180" type="veh_passenger" depart="348.87" departLane="best" from="323903988#0" to="236009652#4"/>
    <trip id="veh181" type="veh_passenger" depart="350.81" departLane="best" from="-572922776#0" to="-165575980#2"/>
    <trip id="veh182" type="veh_passenger" depart="352.75" departLane="best" from="236009653#1" to="-543077767#0"/>
    <trip id="veh183" type="veh_passenger" depart="354.69" departLane="best" from="-5067674#1" to="570321619"/>
    <trip id="veh184" type="veh_passenger" depart="356.63" departLane="best" departSpeed="max" from="25489547#0" to="-5009517"/>
    <trip id="veh185" type="veh_passenger" depart="358.57" departLane="best" from="-5009516#5" to="-882846009#6"/>
    <trip id="veh186" type="veh_passenger" depart="360.50" departLane="best" from="-830074189#12" to="-5009515#7"/>
    <trip id="veh187" type="veh_passenger" depart="362.44" departLane="best" from="-169089564#1" to="-917960748#4"/>
    <trip id="veh188" type="veh_passenger" depart="364.38" departLane="best" from="927785317" to="236009817#0"/>
    <trip id="veh190" type="veh_passenger" depart="368.26" departLane="best" from="-5002577#10" to="158750181#2"/>
    <trip id="veh191" type="veh_passenger" depart="370.19" departLane="best" from="-925210396#0" to="165586281#6"/>
    <trip id="veh192" type="veh_passenger" depart="372.13" departLane="best" from="236009641#1" to="-966236730#1"/>
    <trip id="veh193" type="veh_passenger" depart="374.07" departLane="best" from="-928928626#0" to="-236881378#1"/>
    <trip id="veh194" type="veh_passenger" depart="376.01" departLane="best" from="-967616068#2" to="76764219#2"/>
    <trip id="veh195" type="veh_passenger" depart="377.95" departLane="best" from="5009516#7" to="-236009652#3"/>
    <trip id="veh196" type="veh_passenger" depart="379.89" departLane="best" from="-166917644" to="158076908#3"/>
    <trip id="veh197" type="veh_passenger" depart="381.82" departLane="best" from="192249854#1" to="-5645801#1"/>
    <trip id="veh198" type="veh_passenger" depart="383.76" departLane="best" from="5184505#2" to="323903988#3"/>
    <trip id="veh199" type="veh_passenger" depart="385.70" departLane="best" from="236011369#4" to="-25489547#0"/>
    <trip id="veh200" type="veh_passenger" depart="387.64" departLane="best" from="-236011374#8" to="-158076908#9"/>
    <trip id="veh201" type="veh_passenger" depart="389.58" departLane="best" from="-298083443#5" to="-967616068#5"/>
    <trip id="veh202" type="veh_passenger" depart="391.51" departLane="best" from="570787359#2" to="-165575983#0"/>
    <trip id="veh203" type="veh_passenger" depart="393.45" departLane="best" from="-912835607#6" to="183451127#2"/>
    <trip id="veh204" type="veh_passenger" depart="395.39" departLane="best" from="-236011373#2" to="236012136#2"/>
    <trip id="veh205" type="veh_passenger" depart="397.33" departLane="best" from="10741428#10" to="-301072894#1"/>
    <trip id="veh206" type="veh_passenger" depart="399.27" departLane="best" from="-167038072#2" to="-924426502#0"/>
    <trip id="veh207" type="veh_passenger" depart="401.21" departLane="best" from="-236009648#0" to="938892268#6"/>
    <trip id="veh208" type="veh_passenger" depart="403.14" departLane="best" from="158076908#5" to="-158750174#8"/>
    <trip id="veh209" type="veh_passenger" depart="405.08" departLane="best" from="-301072865#1" to="570321624#0"/>
    <trip id="veh210" type="veh_passenger" depart="407.02" departLane="best" from="-942942359#8" to="5002578"/>
    <trip id="veh211" type="veh_passenger" depart="408.96" departLane="best" from="236009754#4" to="968241078#2"/>
    <trip id="veh212" type="veh_passenger" depart="410.90" departLane="best" from="167038072#0" to="933440657#0"/>
    <trip id="veh213" type="veh_passenger" depart="412.83" departLane="best" from="759621734#3" to="168119150#1"/>
    <trip id="veh214" type="veh_passenger" depart="414.77" departLane="best" departSpeed="max" from="25489547#0" to="124245289#11"/>
    <trip id="veh215" type="veh_passenger" depart="416.71" departLane="best" from="5645798#2" to="158750181#2"/>
    <trip id="veh216" type="veh_passenger" depart="418.65" departLane="best" from="76764220#1" to="301072836#1"/>
    <trip id="veh217" type="veh_passenger" depart="420.59" departLane="best" from="-967852588#1" to="-4719304#1"/>
    <trip id="veh218" type="veh_passenger" depart="422.53" departLane="best" from="-298083452#0" to="192249849#3"/>
    <trip id="veh219" type="veh_passenger" depart="424.46" departLane="best" departSpeed="max" from="4862318#0" to="158076912#17"/>
    <trip id="veh220" type="veh_passenger" depart="426.40" departLane="best" from="183451139#8" to="-4862318#5"/>
    <trip id="veh221" type="veh_passenger" depart="428.34" departLane="best" from="-165575983#5" to="-49499318#2"/>
    <trip id="veh222" type="veh_passenger" depart="430.28" departLane="best" from="-4718274#4" to="-5151667#6"/>
    <trip id="veh223" type="veh_passenger" depart="432.22" departLane="best" from="158076935#0" to="-192249854#1"/>
    <trip id="veh224" type="veh_passenger" depart="434.16" departLane="best" from="-25489544#0" to="236011817#0"/>
    <trip id="veh225" type="veh_passenger" depart="436.09" departLane="best" departSpeed="max" from="236881376" to="-165547714#3"/>
    <trip id="veh226" type="veh_passenger" depart="438.03" departLane="best" from="-871658015#0" to="158076931#4"/>
    <trip id="veh227" type="veh_passenger" depart="439.97" departLane="best" from="-913569501#0" to="-236879290#3"/>
    <trip id="veh228" type="veh_passenger" depart="441.91" departLane="best" from="-916802632#0" to="830074189#13"/>
    <trip id="veh229" type="veh_passenger" depart="443.85" departLane="best" from="167008626#0" to="236011817#9"/>
    <trip id="veh230" type="veh_passenger" depart="445.78" departLane="best" from="572750003" to="4718274#1"/>
    <trip id="veh232" type="veh_passenger" depart="449.66" departLane="best" from="-570321666#3" to="35194254"/>
    <trip id="veh233" type="veh_passenger" depart="451.60" departLane="best" departSpeed="max" from="572749976#0" to="938892173#10"/>
    <trip id="veh234" type="veh_passenger" depart="453.54" departLane="best" from="-915605790" to="301072894#0"/>
    <trip id="veh235" type="veh_passenger" depart="455.48" departLane="best" from="158750187#12" to="167048398#1"/>
    <trip id="veh236" type="veh_passenger" depart="457.41" departLane="best" from="-236881372#0" to="-239072654#0"/>
    <trip id="veh237" type="veh_passenger" depart="459.35" departLane="best" from="-926825468#1" to="-158076912#18"/>
    <trip id="veh238" type="veh_passenger" depart="461.29" departLane="best" from="-543077761#10" to="236009818#4"/>
    <trip id="veh239" type="veh_passenger" depart="463.23" departLane="best" from="-830074189#8" to="-236009643#6"/>
    <trip id="veh240" type="veh_passenger" depart="465.17" departLane="best" departSpeed="max" from="-966751715#2" to="-183451123#1"/>
    <trip id="veh241" type="veh_passenger" depart="467.10" departLane="best" from="183451127#0" to="-158076912#13"/>
    <trip id="veh242" type="veh_passenger" depart="469.04" departLane="best" from="-695466572#0" to="165547714#8"/>
    <trip id="veh243" type="veh_passenger" depart="470.98" departLane="best" from="-158076912#19" to="192249859#8"/>
    <trip id="veh244" type="veh_passenger" depart="472.92" departLane="best" from="-183451127#0" to="-965966162#1"/>
    <trip id="veh245" type="veh_passenger" depart="474.86" departLane="best" from="-158750174#3" to="-65429630#7"/>
    <trip id="veh246" type="veh_passenger" depart="476.80" departLane="best" from="-236014017#1" to="-543077761#11"/>
    <trip id="veh247" type="veh_passenger" depart="478.73" departLane="best" from="46137952#2" to="543068076#5"/>
    <trip id="veh248" type="veh_passenger" depart="480.67" departLane="best" from="-301072886#0" to="-166917650#0"/>
    <trip id="veh249" type="veh_passenger" depart="482.61" departLane="best" from="989349549#1" to="-570551649#4"/>
    <trip id="veh250" type="veh_passenger" depart="484.55" departLane="best" from="192441034#0" to="4862318#8"/>
    <trip id="veh251" type="veh_passenger" depart="486.49" departLane="best" from="192441035#2" to="374737109#1"/>