<?xml version="1.0" encoding="UTF-8"?>

<!-- generated on 2022-03-05 21:40:26 by Eclipse SUMO duarouter Version 1.12.0
<configuration xmlns:xsi="http://www.w3.org/2001/XMLSchema-instance" xsi:noNamespaceSchemaLocation="http://sumo.dlr.de/xsd/duarouterConfiguration.xsd">

    <input>
        <net-file value="C:\Users\simon\Sumo\2022-03-05-21-39-34\osm.net.xml"/>
        <route-files value="C:\Users\simon\Sumo\2022-03-05-21-39-34\osm.passenger.trips.xml"/>
    </input>

    <output>
        <output-file value="C:\Users\simon\Sumo\2022-03-05-21-39-34\osm.passenger.trips.xml.tmp"/>
        <write-trips value="true"/>
    </output>

    <time>
        <begin value="0"/>
        <end value="3600"/>
    </time>

    <report>
        <no-warnings value="true"/>
        <ignore-errors value="true"/>
        <no-step-log value="true"/>
    </report>

</configuration>
-->

<routes xmlns:xsi="http://www.w3.org/2001/XMLSchema-instance" xsi:noNamespaceSchemaLocation="http://sumo.dlr.de/xsd/routes_file.xsd">
    <vType id="veh_passenger" vClass="passenger"/>
    <trip id="veh0" type="veh_passenger" depart="0.00" departLane="best" from="28007944#4" to="-134989602"/>
    <trip id="veh1" type="veh_passenger" depart="0.65" departLane="best" departSpeed="max" from="-386949447" to="-35695121#3"/>
    <trip id="veh2" type="veh_passenger" depart="1.30" departLane="best" departSpeed="max" from="35086100#0" to="330757768#12"/>
    <trip id="veh3" type="veh_passenger" depart="1.95" departLane="best" from="52345192#3" to="-24668591#8"/>
    <trip id="veh4" type="veh_passenger" depart="2.60" departLane="best" from="-783602104#3" to="-135207203#1"/>
    <trip id="veh5" type="veh_passenger" depart="3.25" departLane="best" departSpeed="max" from="-35286507#4" to="190196880"/>
    <trip id="veh6" type="veh_passenger" depart="3.90" departLane="best" from="-134989576#0" to="-34047603#1"/>
    <trip id="veh7" type="veh_passenger" depart="4.55" departLane="best" from="28123918#1" to="24980035"/>
    <trip id="veh8" type="veh_passenger" depart="5.21" departLane="best" departSpeed="max" from="-35286572#3" to="27956784"/>
    <trip id="veh9" type="veh_passenger" depart="5.86" departLane="best" from="39074757#0" to="-104318809"/>
    <trip id="veh10" type="veh_passenger" depart="6.51" departLane="best" from="39074728#1" to="35286512#4"/>
    <trip id="veh11" type="veh_passenger" depart="7.16" departLane="best" departSpeed="max" from="-441789616#3" to="-29285197#3"/>
    <trip id="veh12" type="veh_passenger" depart="7.81" departLane="best" from="923125109" to="-525038156"/>
    <trip id="veh13" type="veh_passenger" depart="8.46" departLane="best" from="-24668591#0" to="-265813629#1"/>
    <trip id="veh14" type="veh_passenger" depart="9.11" departLane="best" from="434317198#0" to="28125127#5"/>
    <trip id="veh15" type="veh_passenger" depart="9.76" departLane="best" departSpeed="max" from="39074734" to="37297191#13"/>
    <trip id="veh16" type="veh_passenger" depart="10.41" departLane="best" from="140549288#0" to="94727482#2"/>
    <trip id="veh17" type="veh_passenger" depart="11.06" departLane="best" from="-496298909#1" to="258430347#0"/>
    <trip id="veh18" type="veh_passenger" depart="11.71" departLane="best" from="39861919#3" to="28343363#4"/>
    <trip id="veh19" type="veh_passenger" depart="12.36" departLane="best" from="452510297" to="27603102#7"/>
    <trip id="veh20" type="veh_passenger" depart="13.01" departLane="best" from="30932533#1" to="-144845146#0"/>
    <trip id="veh21" type="veh_passenger" depart="13.66" departLane="best" departSpeed="max" from="-35286598" to="-40716735#3"/>
    <trip id="veh22" type="veh_passenger" depart="14.31" departLane="best" departSpeed="max" from="-220487387" to="-37297193#4"/>
    <trip id="veh23" type="veh_passenger" depart="14.96" departLane="best" from="-25714232#0" to="-39092178#1"/>
    <trip id="veh24" type="veh_passenger" depart="15.62" departLane="best" from="27815391#2" to="-756942309#1"/>
    <trip id="veh25" type="veh_passenger" depart="16.27" departLane="best" departSpeed="max" from="-49331471" to="-35286504#0"/>
    <trip id="veh26" type="veh_passenger" depart="16.92" departLane="best" departSpeed="max" from="-37389757" to="87222121#1"/>
    <trip id="veh27" type="veh_passenger" depart="17.57" departLane="best" from="28069843#3" to="28289874"/>
    <trip id="veh28" type="veh_passenger" depart="18.22" departLane="best" from="-30109522#2" to="37297191#0"/>
    <trip id="veh29" type="veh_passenger" depart="18.87" departLane="best" from="-29730000#4" to="-89301224"/>
    <trip id="veh30" type="veh_passenger" depart="19.52" departLane="best" from="976481002#0" to="300950248#1"/>
    <trip id="veh31" type="veh_passenger" depart="20.17" departLane="best" from="190192157#0" to="33757100"/>
    <trip id="veh32" type="veh_passenger" depart="20.82" departLane="best" departSpeed="max" from="4272734" to="39074720#2"/>
    <trip id="veh33" type="veh_passenger" depart="21.47" departLane="best" from="-35311137#2" to="-135207223#1"/>
    <trip id="veh34" type="veh_passenger" depart="22.12" departLane="best" from="-397705254#2" to="-39074727#0"/>
    <trip id="veh35" type="veh_passenger" depart="22.77" departLane="best" departSpeed="max" from="-35086087#1" to="89370433#4"/>
    <trip id="veh36" type="veh_passenger" depart="23.42" departLane="best" departSpeed="max" from="49325682#0" to="-46894567#5"/>
    <trip id="veh37" type="veh_passenger" depart="24.07" departLane="best" from="28154569#5" to="-94711852#2"/>
    <trip id="veh38" type="veh_passenger" depart="24.72" departLane="best" from="638331086" to="135207185#7"/>
    <trip id="veh39" type="veh_passenger" depart="25.38" departLane="best" from="-37374332#3" to="-37390158#1"/>
    <trip id="veh40" type="veh_passenger" depart="26.03" departLane="best" from="19802197#3" to="-39074698#1"/>
    <trip id="veh41" type="veh_passenger" depart="26.68" departLane="best" from="22386331#0" to="60587344#0"/>
    <trip id="veh42" type="veh_passenger" depart="27.33" departLane="best" departSpeed="max" from="-609004139" to="-35312415"/>
    <trip id="veh43" type="veh_passenger" depart="27.98" departLane="best" from="98779001#0" to="19803064#0"/>
    <trip id="veh44" type="veh_passenger" depart="28.63" departLane="best" from="-24544106#2" to="-153756400"/>
    <trip id="veh45" type="veh_passenger" depart="29.28" departLane="best" departSpeed="max" from="-27386324#2" to="29727006#2"/>
    <trip id="veh46" type="veh_passenger" depart="29.93" departLane="best" departSpeed="max" from="39074660" to="104278989#3"/>
    <trip id="veh47" type="veh_passenger" depart="30.58" departLane="best" from="-190192157#2" to="-89307687"/>
    <trip id="veh48" type="veh_passenger" depart="31.23" departLane="best" from="98318972#3" to="22384595#2"/>
    <trip id="veh49" type="veh_passenger" depart="31.88" departLane="best" from="94603062" to="49303720#1"/>
    <trip id="veh50" type="veh_passenger" depart="32.53" departLane="best" from="-107632017#2" to="362454196"/>
    <trip id="veh51" type="veh_passenger" depart="33.18" departLane="best" from="29741089#10" to="24544105#0"/>
    <trip id="veh52" type="veh_passenger" depart="33.83" departLane="best" departSpeed="max" from="-37389757" to="30111223#0"/>
    <trip id="veh53" type="veh_passenger" depart="34.48" departLane="best" from="-27582122#4" to="116404540#1"/>
    <trip id="veh54" type="veh_passenger" depart="35.14" departLane="best" from="-94727495#0" to="94178609"/>
    <trip id="veh55" type="veh_passenger" depart="35.79" departLane="best" from="49325421" to="-39074700#4"/>
    <trip id="veh56" type="veh_passenger" depart="36.44" departLane="best" from="134727279#3" to="-31264893"/>
    <trip id="veh57" type="veh_passenger" depart="37.09" departLane="best" from="632643383#1" to="49335098#0"/>
    <trip id="veh58" type="veh_passenger" depart="37.74" departLane="best" from="-39074745#5" to="29985851#4"/>
    <trip id="veh60" type="veh_passenger" depart="39.04" departLane="best" from="364075852#3" to="24668591#1"/>
    <trip id="veh61" type="veh_passenger" depart="39.69" departLane="best" from="37339236#2" to="22385351#5"/>
    <trip id="veh62" type="veh_passenger" depart="40.34" departLane="best" from="-101433110#0" to="-49332985#1"/>
    <trip id="veh63" type="veh_passenger" depart="40.99" departLane="best" from="-122580613#1" to="795308535"/>
    <trip id="veh65" type="veh_passenger" depart="42.29" departLane="best" from="-39092179#2" to="-179986435#2"/>
    <trip id="veh67" type="veh_passenger" depart="43.59" departLane="best" from="-22384595#8" to="161969827#1"/>
    <trip id="veh68" type="veh_passenger" depart="44.24" departLane="best" departSpeed="max" from="-19802211#5" to="39074651"/>
    <trip id="veh69" type="veh_passenger" depart="44.89" departLane="best" from="37297184#1" to="-28037947#2"/>
    <trip id="veh70" type="veh_passenger" depart="45.55" departLane="best" from="1016970351" to="25640514#0"/>
    <trip id="veh71" type="veh_passenger" depart="46.20" departLane="best" from="-37389755#0" to="494081436#0"/>
    <trip id="veh72" type="veh_passenger" depart="46.85" departLane="best" from="-786305335" to="-35286576#0"/>
    <trip id="veh73" type="veh_passenger" depart="47.50" departLane="best" departSpeed="max" from="144845146#0" to="37297191#4"/>
    <trip id="veh74" type="veh_passenger" depart="48.15" departLane="best" from="-330757768#3" to="-464574458#1"/>
    <trip id="veh75" type="veh_passenger" depart="48.80" departLane="best" from="98221398#0" to="30596345#1"/>
    <trip id="veh76" type="veh_passenger" depart="49.45" departLane="best" from="-89388368#1" to="201725670#0"/>
    <trip id="veh77" type="veh_passenger" depart="50.10" departLane="best" from="-27603102#6" to="-36055583#3"/>
    <trip id="veh78" type="veh_passenger" depart="50.75" departLane="best" from="-43550480#6" to="27956779#2"/>
    <trip id="veh79" type="veh_passenger" depart="51.40" departLane="best" from="-35311160#2" to="-35312429#3"/>
    <trip id="veh80" type="veh_passenger" depart="52.05" departLane="best" from="-19803068#7" to="29741321#4"/>
    <trip id="veh81" type="veh_passenger" depart="52.70" departLane="best" from="-35311137#1" to="633742327#2"/>
    <trip id="veh82" type="veh_passenger" depart="53.35" departLane="best" from="45206103#0" to="-220331653"/>
    <trip id="veh83" type="veh_passenger" depart="54.00" departLane="best" departSpeed="max" from="-36055584" to="32841507#1"/>
    <trip id="veh84" type="veh_passenger" depart="54.65" departLane="best" from="-35217955#0" to="-28115065#3"/>
    <trip id="veh85" type="veh_passenger" depart="55.31" departLane="best" from="80446534" to="27602296#10"/>
    <trip id="veh86" type="veh_passenger" depart="55.96" departLane="best" from="101433110#2" to="39074764#1"/>
    <trip id="veh87" type="veh_passenger" depart="56.61" departLane="best" from="39074736#0" to="-32997891#1"/>
    <trip id="veh88" type="veh_passenger" depart="57.26" departLane="best" from="-24980031#0" to="10968767#9"/>
    <trip id="veh89" type="veh_passenger" depart="57.91" departLane="best" from="-795308535" to="135207238#2"/>
    <trip id="veh90" type="veh_passenger" depart="58.56" departLane="best" from="34047603#2" to="32846420#3"/>
    <trip id="veh91" type="veh_passenger" depart="59.21" departLane="best" from="96651349" to="-267279604#3"/>
    <trip id="veh92" type="veh_passenger" depart="59.86" departLane="best" from="-628514588#3" to="-547515124#6"/>
    <trip id="veh93" type="veh_passenger" depart="60.51" departLane="best" from="452510297" to="-385907414#0"/>
    <trip id="veh94" type="veh_passenger" depart="61.16" departLane="best" from="-32599885#1" to="134989573#4"/>
    <trip id="veh95" type="veh_passenger" depart="61.81" departLane="best" from="-783602104#2" to="-39092179#2"/>
    <trip id="veh96" type="veh_passenger" depart="62.46" departLane="best" departSpeed="max" from="-37297195#2" to="746434520#1"/>
    <trip id="veh97" type="veh_passenger" depart="63.11" departLane="best" from="-93720111#1" to="49303772#3"/>
    <trip id="veh98" type="veh_passenger" depart="63.76" departLane="best" from="179318029#1" to="-164358770#3"/>
    <trip id="veh99" type="veh_passenger" depart="64.41" departLane="best" from="99024297#0" to="4491576#0"/>
    <trip id="veh100" type="veh_passenger" depart="65.06" departLane="best" from="94602990" to="780579231"/>
    <trip id="veh101" type="veh_passenger" depart="65.72" departLane="best" from="434323190" to="-30111223#0"/>
    <trip id="veh102" type="veh_passenger" depart="66.37" departLane="best" departSpeed="max" from="107632017#0" to="-35286588#0"/>
    <trip id="veh103" type="veh_passenger" depart="67.02" departLane="best" departSpeed="max" from="-61910789#2" to="-184818318#1"/>
    <trip id="veh104" type="veh_passenger" depart="67.67" departLane="best" from="-498890215" to="976088823#10"/>
    <trip id="veh105" type="veh_passenger" depart="68.32" departLane="best" from="-37389755#10" to="39074763#6"/>
    <trip id="veh106" type="veh_passenger" depart="68.97" departLane="best" from="-95094994#6" to="104279426#0"/>
    <trip id="veh107" type="veh_passenger" depart="69.62" departLane="best" from="923125109" to="98616629#1"/>
    <trip id="veh108" type="veh_passenger" depart="70.27" departLane="best" from="184858278" to="36055583#8"/>
    <trip id="veh109" type="veh_passenger" depart="70.92" departLane="best" from="-28343359#0" to="-42029914#5"/>
    <trip id="veh110" type="veh_passenger" depart="71.57" departLane="best" from="94602961#1" to="276043569#0"/>
    <trip id="veh111" type="veh_passenger" depart="72.22" departLane="best" from="157304012#0" to="37389755#12"/>
    <trip id="veh112" type="veh_passenger" depart="72.87" departLane="best" from="-179317988#7" to="27681237#7"/>
    <trip id="veh113" type="veh_passenger" depart="73.52" departLane="best" from="134989551#1" to="46894598#1"/>
    <trip id="veh114" type="veh_passenger" depart="74.17" departLane="best" from="-28520945#4" to="94545452#1"/>
    <trip id="veh115" type="veh_passenger" depart="74.82" departLane="best" from="-220487388#1" to="-32599885#6"/>
    <trip id="veh116" type="veh_passenger" depart="75.48" departLane="best" from="24747539#7" to="32998093#8"/>
    <trip id="veh117" type="veh_passenger" depart="76.13" departLane="best" from="-35695121#4" to="-27684095#1"/>
    <trip id="veh118" type="veh_passenger" depart="76.78" departLane="best" from="52345159#4" to="-37389755#9"/>
    <trip id="veh119" type="veh_passenger" depart="77.43" departLane="best" from="24747539#2" to="284658960#1"/>
    <trip id="veh120" type="veh_passenger" depart="78.08" departLane="best" from="-751559970#8" to="27681237#2"/>
    <trip id="veh121" type="veh_passenger" depart="78.73" departLane="best" from="135207225#2" to="866030037#1"/>
    <trip id="veh122" type="veh_passenger" depart="79.38" departLane="best" from="-33531819" to="35964674#2"/>
    <trip id="veh123" type="veh_passenger" depart="80.03" departLane="best" departSpeed="max" from="-36055585" to="-94711856#0"/>
    <trip id="veh124" type="veh_passenger" depart="80.68" departLane="best" from="28514156#1" to="-43418079#1"/>
    <trip id="veh125" type="veh_passenger" depart="81.33" departLane="best" departSpeed="max" from="-39861902#1" to="37408143#0"/>
    <trip id="veh126" type="veh_passenger" depart="81.98" departLane="best" from="-19803077" to="135207185#15"/>
    <trip id="veh127" type="veh_passenger" depart="82.63" departLane="best" from="98987548" to="986336001#2"/>
    <trip id="veh128" type="veh_passenger" depart="83.28" departLane="best" from="-19803517#1" to="-35286581#4"/>
    <trip id="veh130" type="veh_passenger" depart="84.58" departLane="best" from="494081436#0" to="50827373#1"/>
    <trip id="veh131" type="veh_passenger" depart="85.24" departLane="best" from="-49331459#0" to="-29713177#1"/>
    <trip id="veh132" type="veh_passenger" depart="85.89" departLane="best" from="41912191#3" to="35286584#1"/>
    <trip id="veh133" type="veh_passenger" depart="86.54" departLane="best" from="267279604#0" to="976088829#2"/>
    <trip id="veh134" type="veh_passenger" depart="87.19" departLane="best" from="28146422#0" to="-106697040#0"/>
    <trip id="veh135" type="veh_passenger" depart="87.84" departLane="best" from="39107120#12" to="-43418075#6"/>
    <trip id="veh136" type="veh_passenger" depart="88.49" departLane="best" from="28309482#0" to="88320824#4"/>
    <trip id="veh138" type="veh_passenger" depart="89.79" departLane="best" departSpeed="max" from="-268181275" to="258430352"/>
    <trip id="veh139" type="veh_passenger" depart="90.44" departLane="best" from="-385907402" to="28146922#1"/>
    <trip id="veh141" type="veh_passenger" depart="91.74" departLane="best" from="27684083#2" to="-39074707#0"/>
    <trip id="veh142" type="veh_passenger" depart="92.39" departLane="best" from="10968767#3" to="633742327#1"/>
    <trip id="veh143" type="veh_passenger" depart="93.04" departLane="best" from="43418077#0" to="-25627415#0"/>
    <trip id="veh144" type="veh_passenger" depart="93.69" departLane="best" from="-795308535" to="-39092176#7"/>
    <trip id="veh145" type="veh_passenger" depart="94.34" departLane="best" from="-101768664#3" to="39074697#4"/>
    <trip id="veh146" type="veh_passenger" depart="94.99" departLane="best" from="27956775#9" to="-39074694#6"/>
    <trip id="veh147" type="veh_passenger" depart="95.65" departLane="best" from="35286501#1" to="258430097#0"/>
    <trip id="veh149" type="veh_passenger" depart="96.95" departLane="best" from="-206490679" to="52345159#2"/>
    <trip id="veh150" type="veh_passenger" depart="97.60" departLane="best" from="592182327#1" to="25067572#2"/>
    <trip id="veh151" type="veh_passenger" depart="98.25" departLane="best" from="41912195#3" to="27674454"/>
    <trip id="veh152" type="veh_passenger" depart="98.90" departLane="best" from="-28242205#1" to="-28037730#0"/>
    <trip id="veh153" type="veh_passenger" depart="99.55" departLane="best" from="-39092188#0" to="609003150#0"/>
    <trip id="veh154" type="veh_passenger" depart="100.20" departLane="best" from="39074685#6" to="49303720#1"/>
    <trip id="veh155" type="veh_passenger" depart="100.85" departLane="best" from="553460094#1" to="-35286507#1"/>
    <trip id="veh156" type="veh_passenger" depart="101.50" departLane="best" from="-37297195#0" to="-27582122#0"/>
    <trip id="veh157" type="veh_passenger" depart="102.15" departLane="best" from="37339241#0" to="52345192#3"/>
    <trip id="veh158" type="veh_passenger" depart="102.80" departLane="best" from="-640969021#0" to="28520945#3"/>
    <trip id="veh159" type="veh_passenger" depart="103.45" departLane="best" from="-28342745#0" to="80446532#1"/>
    <trip id="veh160" type="veh_passenger" depart="104.10" departLane="best" from="45857097#1" to="95095002"/>
    <trip id="veh161" type="veh_passenger" depart="104.75" departLane="best" from="39074764#0" to="51080605#0"/>
    <trip id="veh162" type="veh_passenger" depart="105.41" departLane="best" from="-134989561#1" to="37297214#1"/>
    <trip id="veh163" type="veh_passenger" depart="106.06" departLane="best" from="-431505956#1" to="820455855"/>
    <trip id="veh165" type="veh_passenger" depart="107.36" departLane="best" from="39074764#0" to="-39074722#7"/>
    <trip id="veh166" type="veh_passenger" depart="108.01" departLane="best" from="387290889#1" to="-27602302#2"/>
    <trip id="veh167" type="veh_passenger" depart="108.66" departLane="best" from="48833978" to="48957111#2"/>
    <trip id="veh168" type="veh_passenger" depart="109.31" departLane="best" departSpeed="max" from="-35286577#1" to="42029914#0"/>
    <trip id="veh169" type="veh_passenger" depart="109.96" departLane="best" from="-976088819#2" to="-443045111#2"/>
    <trip id="veh170" type="veh_passenger" depart="110.61" departLane="best" from="39074677#1" to="-364075852#5"/>
    <trip id="veh171" type="veh_passenger" depart="111.26" departLane="best" from="-134989549#9" to="-330757768#12"/>
    <trip id="veh172" type="veh_passenger" depart="111.91" departLane="best" from="-41984586#0" to="49331161"/>
    <trip id="veh173" type="veh_passenger" depart="112.56" departLane="best" from="94545457" to="-39092185#1"/>
    <trip id="veh174" type="veh_passenger" depart="113.21" departLane="best" from="28032236#4" to="-95094994#6"/>
    <trip id="veh175" type="veh_passenger" depart="113.86" departLane="best" from="95095002" to="24544101#3"/>
    <trip id="veh177" type="veh_passenger" depart="115.16" departLane="best" from="94522269#6" to="-39074719#0"/>
    <trip id="veh178" type="veh_passenger" depart="115.82" departLane="best" from="-27386151#9" to="115953540#4"/>
    <trip id="veh179" type="veh_passenger" depart="116.47" departLane="best" from="34047513" to="-46830134"/>
    <trip id="veh180" type="veh_passenger" depart="117.12" departLane="best" from="258430347#1" to="19803074#1"/>
    <trip id="veh181" type="veh_passenger" depart="117.77" departLane="best" from="-52345159#1" to="27603102#0"/>
    <trip id="veh182" type="veh_passenger" depart="118.42" departLane="best" from="-37297216#1" to="35311157#2"/>
    <trip id="veh183" type="veh_passenger" depart="119.07" departLane="best" from="-101433217#0" to="769694983#2"/>
    <trip id="veh184" type="veh_passenger" depart="119.72" departLane="best" from="144379387#0" to="36055585"/>
    <trip id="veh185" type="veh_passenger" depart="120.37" departLane="best" from="35286504#2" to="32841681#8"/>
    <trip id="veh186" type="veh_passenger" depart="121.02" departLane="best" departSpeed="max" from="-49303720#1" to="-19803517#3"/>
    <trip id="veh187" type="veh_passenger" depart="121.67" departLane="best" from="28314565#1" to="-50827373#0"/>
    <trip id="veh188" type="veh_passenger" depart="122.32" departLane="best" from="-39447057#1" to="465257430"/>
    <trip id="veh189" type="veh_passenger" depart="122.97" departLane="best" from="32846420#4" to="-434317196#2"/>
    <trip id="veh190" type="veh_passenger" depart="123.62" departLane="best" from="-39107120#11" to="-98049139#2"/>
    <trip id="veh191" type="veh_passenger" depart="124.27" departLane="best" from="-628514588#1" to="-42029069#0"/>
    <trip id="veh192" type="veh_passenger" depart="124.92" departLane="best" from="-27681237#8" to="103893278"/>
    <trip id="veh193" type="veh_passenger" depart="125.58" departLane="best" from="87222117#0" to="330757768#15"/>
    <trip id="veh194" type="veh_passenger" depart="126.23" departLane="best" from="586401949#2" to="283174681#1"/>
    <trip id="veh195" type="veh_passenger" depart="126.88" departLane="best" from="-39074763#6" to="25627417"/>
    <trip id="veh196" type="veh_passenger" depart="127.53" departLane="best" from="-101433081#1" to="-39861912#3"/>
    <trip id="veh197" type="veh_passenger" depart="128.18" departLane="best" from="-866204098#1" to="276049497#4"/>
    <trip id="veh198" type="veh_passenger" depart="128.83" departLane="best" from="28147253" to="135207225#0"/>
    <trip id="veh199" type="veh_passenger" depart="129.48" departLane="best" from="-915152992" to="-35286588#0"/>
    <trip id="veh200" type="veh_passenger" depart="130.13" departLane="best" from="101433217#1" to="61910789#2"/>
    <trip id="veh201" type="veh_passenger" depart="130.78" departLane="best" from="39074685#6" to="-30234897#6"/>
    <trip id="veh202" type="veh_passenger" depart="131.43" departLane="best" from="-22384595#0" to="201725668#0"/>
    <trip id="veh203" type="veh_passenger" depart="132.08" departLane="best" from="27681237#3" to="-52345192#3"/>
    <trip id="veh204" type="veh_passenger" depart="132.73" departLane="best" from="39193487#14" to="37408141#2"/>
    <trip id="veh205" type="veh_passenger" depart="133.38" departLane="best" from="28520945#4" to="-36055583#3"/>
    <trip id="veh206" type="veh_passenger" depart="134.03" departLane="best" from="-330757768#1" to="-134989580#7"/>
    <trip id="veh207" type="veh_passenger" depart="134.68" departLane="best" departSpeed="max" from="-36872883#2" to="137312642#0"/>
    <trip id="veh208" type="veh_passenger" depart="135.34" departLane="best" from="435254635" to="-220331656"/>
    <trip id="veh209" type="veh_passenger" depart="135.99" departLane="best" departSpeed="max" from="-739158041" to="29741132#1"/>
    <trip id="veh210" type="veh_passenger" depart="136.64" departLane="best" from="-32841681#5" to="35286504#2"/>
    <trip id="veh211" type="veh_passenger" depart="137.29" departLane="best" from="120517467#0" to="-373436808#2"/>
    <trip id="veh212" type="veh_passenger" depart="137.94" departLane="best" departSpeed="max" from="28154575" to="-104278989#4"/>
    <trip id="veh213" type="veh_passenger" depart="138.59" departLane="best" from="35311244#10" to="39074694#2"/>
    <trip id="veh214" type="veh_passenger" depart="139.24" departLane="best" departSpeed="max" from="-268181274" to="105937793#3"/>
    <trip id="veh215" type="veh_passenger" depart="139.89" departLane="best" from="-30505619#3" to="94522272#0"/>
    <trip id="veh216" type="veh_passenger" depart="140.54" departLane="best" departSpeed="max" from="135207190#0" to="-164358770#0"/>
    <trip id="veh217" type="veh_passenger" depart="141.19" departLane="best" from="-37297193#5" to="465912417"/>
    <trip id="veh218" type="veh_passenger" depart="141.84" departLane="best" departSpeed="max" from="-953196640" to="39861912#1"/>
    <trip id="veh219" type="veh_passenger" depart="142.49" departLane="best" from="283174681#1" to="976480983#1"/>
    <trip id="veh220" type="veh_passenger" depart="143.14" departLane="best" from="24748954#3" to="914179039"/>
    <trip id="veh221" type="veh_passenger" depart="143.79" departLane="best" departSpeed="max" from="52345192#0" to="28309485#1"/>
    <trip id="veh222" type="veh_passenger" depart="144.44" departLane="best" from="32846420#1" to="190196879#1"/>
    <trip id="veh223" type="veh_passenger" depart="145.09" departLane="best" from="40716735#0" to="25627416#3"/>
    <trip id="veh224" type="veh_passenger" depart="145.75" departLane="best" from="547515124#6" to="37337877#3"/>
    <trip id="veh225" type="veh_passenger" depart="146.40" departLane="best" from="1016970340#1" to="-39074685#5"/>
    <trip id="veh226" type="veh_passenger" depart="147.05" departLane="best" from="-37297191#10" to="299326440#2"/>
    <trip id="veh227" type="veh_passenger" depart="147.70" departLane="best" from="37297184#1" to="220331655#4"/>
    <trip id="veh228" type="veh_passenger" depart="148.35" departLane="best" departSpeed="max" from="276041232" to="-39074766#5"/>
    <trip id="veh229" type="veh_passenger" depart="149.00" departLane="best" from="-220331655#5" to="-397705254#3"/>
    <trip id="veh230" type="veh_passenger" depart="149.65" departLane="best" from="-382642590#0" to="-49303772#3"/>
    <trip id="veh231" type="veh_passenger" depart="150.30" departLane="best" from="144968179#1" to="-28154569#4"/>
    <trip id="veh232" type="veh_passenger" depart="150.95" departLane="best" from="314810601#0" to="-19802210#3"/>
    <trip id="veh233" type="veh_passenger" depart="151.60" departLane="best" from="-676833753" to="24749890#3"/>
    <trip id="veh234" type="veh_passenger" depart="152.25" departLane="best" departSpeed="max" from="-74136311#1" to="-35086102#0"/>
    <trip id="veh235" type="veh_passenger" depart="152.90" departLane="best" from="-769694983#4" to="633741916#1"/>
    <trip id="veh236" type="veh_passenger" depart="153.55" departLane="best" from="22386057#1" to="35286503#3"/>
    <trip id="veh237" type="veh_passenger" depart="154.20" departLane="best" from="446119923" to="39074669#4"/>
    <trip id="veh238" type="veh_passenger" depart="154.85" departLane="best" departSpeed="max" from="-50827065#1" to="-104279426#1"/>
    <trip id="veh240" type="veh_passenger" depart="156.16" departLane="best" from="439376973#1" to="93720123#0"/>
    <trip id="veh241" type="veh_passenger" depart="156.81" departLane="best" from="-751559970#6" to="37389755#0"/>
    <trip id="veh242" type="veh_passenger" depart="157.46" departLane="best" from="164358770#7" to="28125127#1"/>
    <trip id="veh243" type="veh_passenger" depart="158.11" departLane="best" departSpeed="max" from="-35286572#3" to="-35312415"/>
    <trip id="veh244" type="veh_passenger" depart="158.76" departLane="best" from="-89370429#1" to="-135207199#0"/>
    <trip id="veh245" type="veh_passenger" depart="159.41" departLane="best" from="-434317202#3" to="33113130#2"/>
    <trip id="veh246" type="veh_passenger" depart="160.06" departLane="best" from="-638331084#0" to="-300950244#0"/>
    <trip id="veh247" type="veh_passenger" depart="160.71" departLane="best" from="-98221398#3" to="-28037730#2"/>
    <trip id="veh248" type="veh_passenger" depart="161.36" departLane="best" from="27602302#1" to="-135207188#0"/>
    <trip id="veh249" type="veh_passenger" depart="162.01" departLane="best" from="-557814529" to="27386308#3"/>
    <trip id="veh250" type="veh_passenger" depart="162.66" departLane="best" from="-134989579#1" to="30173919#2"/>
    <trip id="veh251" type="veh_passenger" depart="163.31" departLane="best" from="-28037729#0" to="135207203#0"/>
    <trip id="veh252" type="veh_passenger" depart="163.96" departLane="best" departSpeed="max" from="-144968188#1" to="-89298542#0"/>
    <trip id="veh253" type="veh_passenger" depart="164.61" departLane="best" departSpeed="max" from="-35086089#2" to="-498890217"/>
    <trip id="veh254" type="veh_passenger" depart="165.27" departLane="best" from="362454197#7" to="-89298542#0"/>
    <trip id="veh255" type="veh_passenger" depart="165.92" departLane="best" from="35312394#0" to="441789616#3"/>
    <trip id="veh256" type="veh_passenger" depart="166.57" departLane="best" from="-37297209#0" to="-23943603#7"/>
    <trip id="veh257" type="veh_passenger" depart="167.22" departLane="best" from="-122580613#0" to="24668591#1"/>
    <trip id="veh258" type="veh_passenger" depart="167.87" departLane="best" from="99861283#2" to="-622473971"/>