<?xml version="1.0" encoding="UTF-8"?>

<!-- generated on 2022-03-05 21:40:47 by Eclipse SUMO duarouter Version 1.12.0
<configuration xmlns:xsi="http://www.w3.org/2001/XMLSchema-instance" xsi:noNamespaceSchemaLocation="http://sumo.dlr.de/xsd/duarouterConfiguration.xsd">

    <input>
        <net-file value="C:\Users\simon\Sumo\2022-03-05-21-39-34\osm.net.xml"/>
        <route-files value="C:\Users\simon\Sumo\2022-03-05-21-39-34\osm.bus.trips.xml"/>
    </input>

    <output>
        <output-file value="C:\Users\simon\Sumo\2022-03-05-21-39-34\osm.bus.trips.xml.tmp"/>
        <write-trips value="true"/>
    </output>

    <time>
        <begin value="0"/>
        <end value="3600"/>
    </time>

    <report>
        <no-warnings value="true"/>
        <ignore-errors value="true"/>
        <no-step-log value="true"/>
    </report>

</configuration>
-->

<routes xmlns:xsi="http://www.w3.org/2001/XMLSchema-instance" xsi:noNamespaceSchemaLocation="http://sumo.dlr.de/xsd/routes_file.xsd">
    <vType id="bus_bus" vClass="bus"/>
    <trip id="bus0" type="bus_bus" depart="0.00" departLane="best" from="-37389755#2" to="-35311133#2"/>
    <trip id="bus1" type="bus_bus" depart="1.94" departLane="best" from="34608027#0" to="32998093#4"/>
    <trip id="bus2" type="bus_bus" depart="3.89" departLane="best" from="50827289#1" to="-24523173"/>
    <trip id="bus3" type="bus_bus" depart="5.83" departLane="best" from="-705286357" to="-135207189#5"/>
    <trip id="bus4" type="bus_bus" depart="7.77" departLane="best" departSpeed="max" from="-35086089#2" to="179987470#2"/>
    <trip id="bus5" type="bus_bus" depart="9.72" departLane="best" from="-134989561#0" to="-32998093#0"/>
    <trip id="bus6" type="bus_bus" depart="11.66" departLane="best" departSpeed="max" from="28032238#0" to="24747539#1"/>
    <trip id="bus7" type="bus_bus" depart="13.60" departLane="best" from="-35086102#2" to="27684083#3"/>
    <trip id="bus8" type="bus_bus" depart="15.55" departLane="best" from="39074700#3" to="-104318805#0"/>
    <trip id="bus9" type="bus_bus" depart="17.49" departLane="best" departSpeed="max" from="39074689" to="35286507#0"/>
    <trip id="bus10" type="bus_bus" depart="19.43" departLane="best" from="-41984586#0" to="-283190108#0"/>
    <trip id="bus11" type="bus_bus" depart="21.38" departLane="best" from="897627849#6" to="-494081436#0"/>
    <trip id="bus12" type="bus_bus" depart="23.32" departLane="best" from="-23943603#8" to="-25627418#0"/>
    <trip id="bus13" type="bus_bus" depart="25.26" departLane="best" from="42029914#2" to="28069843#0"/>
    <trip id="bus14" type="bus_bus" depart="27.21" departLane="best" from="39074691#3" to="37297185#4"/>
    <trip id="bus15" type="bus_bus" depart="29.15" departLane="best" from="135207238#2" to="94727482#0"/>
    <trip id="bus16" type="bus_bus" depart="31.09" departLane="best" departSpeed="max" from="-49303774" to="25627416#2"/>
    <trip id="bus18" type="bus_bus" depart="34.98" departLane="best" from="446737725#1" to="27602527#0"/>
    <trip id="bus19" type="bus_bus" depart="36.92" departLane="best" from="305482863" to="-140549288#2"/>
    <trip id="bus20" type="bus_bus" depart="38.87" departLane="best" departSpeed="max" from="-35286572#3" to="-39092178#4"/>
    <trip id="bus21" type="bus_bus" depart="40.81" departLane="best" departSpeed="max" from="-220331652#1" to="-359836053#1"/>
    <trip id="bus22" type="bus_bus" depart="42.75" departLane="best" from="-25095790#1" to="-39074727#0"/>
    <trip id="bus23" type="bus_bus" depart="44.70" departLane="best" from="276043560#6" to="-652500650"/>
    <trip id="bus25" type="bus_bus" depart="48.58" departLane="best" from="-37297221#2" to="866204098#0"/>
    <trip id="bus26" type="bus_bus" depart="50.53" departLane="best" from="28007945#2" to="28125127#4"/>
    <trip id="bus27" type="bus_bus" depart="52.47" departLane="best" from="-29741089#10" to="37297184#1"/>
    <trip id="bus28" type="bus_bus" depart="54.41" departLane="best" from="-28514147#0" to="-80446504"/>
    <trip id="bus29" type="bus_bus" depart="56.36" departLane="best" from="976088829#1" to="298488895#0"/>
    <trip id="bus30" type="bus_bus" depart="58.30" departLane="best" from="172029527#2" to="33728223#2"/>
    <trip id="bus31" type="bus_bus" depart="60.24" departLane="best" from="41912191#4" to="39074698#0"/>
    <trip id="bus32" type="bus_bus" depart="62.19" departLane="best" departSpeed="max" from="-35286576#3" to="-135207203#2"/>
    <trip id="bus33" type="bus_bus" depart="64.13" departLane="best" departSpeed="max" from="-33532202#1" to="89370395#1"/>
    <trip id="bus34" type="bus_bus" depart="66.07" departLane="best" from="475470684#2" to="-443045111#3"/>
    <trip id="bus35" type="bus_bus" depart="68.02" departLane="best" from="28055522#0" to="-89387843#3"/>
    <trip id="bus36" type="bus_bus" depart="69.96" departLane="best" from="633742323#1" to="134989560"/>
    <trip id="bus37" type="bus_bus" depart="71.90" departLane="best" from="179477997#1" to="-39074655#2"/>
    <trip id="bus39" type="bus_bus" depart="75.79" departLane="best" from="-52345192#5" to="-35286576#0"/>
    <trip id="bus40" type="bus_bus" depart="77.73" departLane="best" from="98779001#0" to="190192177#0"/>
    <trip id="bus41" type="bus_bus" depart="79.68" departLane="best" from="-22386331#0" to="-143232900#2"/>
    <trip id="bus42" type="bus_bus" depart="81.62" departLane="best" departSpeed="max" from="-268181274" to="29051194"/>
    <trip id="bus43" type="bus_bus" depart="83.56" departLane="best" from="-179748470#3" to="-8428661#5"/>
    <trip id="bus44" type="bus_bus" depart="85.51" departLane="best" from="98318972#1" to="220487388#1"/>
    <trip id="bus45" type="bus_bus" depart="87.45" departLane="best" from="94603009#1" to="48957107"/>
    <trip id="bus46" type="bus_bus" depart="89.39" departLane="best" departSpeed="max" from="-106963587" to="36055583#7"/>
    <trip id="bus47" type="bus_bus" depart="91.34" departLane="best" from="28520917#0" to="22386331#3"/>
    <trip id="bus48" type="bus_bus" depart="93.28" departLane="best" from="-37297220#3" to="299326440#0"/>
    <trip id="bus49" type="bus_bus" depart="95.22" departLane="best" from="-27386151#7" to="104318805#0"/>
    <trip id="bus50" type="bus_bus" depart="97.17" departLane="best" departSpeed="max" from="-897210494#1" to="93634653#0"/>
    <trip id="bus51" type="bus_bus" depart="99.11" departLane="best" from="470246695" to="-39074657#0"/>
    <trip id="bus52" type="bus_bus" depart="101.05" departLane="best" from="107905031#2" to="-30505619#3"/>
    <trip id="bus53" type="bus_bus" depart="103.00" departLane="best" from="628514589#0" to="49331459#2"/>
    <trip id="bus54" type="bus_bus" depart="104.94" departLane="best" departSpeed="max" from="-39074697#4" to="29741604"/>
    <trip id="bus55" type="bus_bus" depart="106.88" departLane="best" from="25627415#2" to="-28309482#1"/>
    <trip id="bus56" type="bus_bus" depart="108.83" departLane="best" departSpeed="max" from="35312488#0" to="23982030#1"/>
    <trip id="bus57" type="bus_bus" depart="110.77" departLane="best" from="37297209#5" to="220487398#2"/>
    <trip id="bus58" type="bus_bus" depart="112.71" departLane="best" from="-101433081#2" to="-46830134"/>
    <trip id="bus59" type="bus_bus" depart="114.66" departLane="best" from="-120422282#0" to="780579231"/>
    <trip id="bus60" type="bus_bus" depart="116.60" departLane="best" from="48957118#2" to="436156032#2"/>
    <trip id="bus61" type="bus_bus" depart="118.54" departLane="best" from="-39074736#0" to="-179318026#2"/>
    <trip id="bus62" type="bus_bus" depart="120.49" departLane="best" from="48845389" to="89370471#1"/>
    <trip id="bus63" type="bus_bus" depart="122.43" departLane="best" from="-220753096#0" to="137312642#2"/>
    <trip id="bus64" type="bus_bus" depart="124.38" departLane="best" from="-190196878#16" to="385907416#0"/>
    <trip id="bus65" type="bus_bus" depart="126.32" departLane="best" from="35964673" to="-28007944#10"/>
    <trip id="bus66" type="bus_bus" depart="128.26" departLane="best" departSpeed="max" from="-976088823#10" to="25067573#1"/>
    <trip id="bus67" type="bus_bus" depart="130.21" departLane="best" from="-37297216#5" to="49332224"/>
    <trip id="bus68" type="bus_bus" depart="132.15" departLane="best" from="-705286364#5" to="-35086100#0"/>
    <trip id="bus69" type="bus_bus" depart="134.09" departLane="best" from="136641086#1" to="37297188#1"/>
    <trip id="bus70" type="bus_bus" depart="136.04" departLane="best" from="-32841681#1" to="-43550480#0"/>
    <trip id="bus71" type="bus_bus" depart="137.98" departLane="best" from="98049394#2" to="305482859#6"/>
    <trip id="bus72" type="bus_bus" depart="139.92" departLane="best" from="-818077657#5" to="19803068#2"/>
    <trip id="bus73" type="bus_bus" depart="141.87" departLane="best" from="-27602302#2" to="-35311160#0"/>
    <trip id="bus74" type="bus_bus" depart="143.81" departLane="best" departSpeed="max" from="-41912194" to="27681237#8"/>
    <trip id="bus75" type="bus_bus" depart="145.75" departLane="best" from="-194694254" to="29726024#2"/>
    <trip id="bus76" type="bus_bus" depart="147.70" departLane="best" from="-35286576#2" to="628514589#3"/>
    <trip id="bus77" type="bus_bus" depart="149.64" departLane="best" from="443045111#3" to="-19803069#1"/>
    <trip id="bus78" type="bus_bus" depart="151.58" departLane="best" from="-35311157#2" to="32767133"/>
    <trip id="bus79" type="bus_bus" depart="153.53" departLane="best" departSpeed="max" from="-33757100" to="-28037300#6"/>
    <trip id="bus80" type="bus_bus" depart="155.47" departLane="best" from="786305338#0" to="27582122#8"/>
    <trip id="bus81" type="bus_bus" depart="157.41" departLane="best" from="-96095213#0" to="39074731#5"/>
    <trip id="bus82" type="bus_bus" depart="159.36" departLane="best" from="39074694#0" to="-31909901"/>
    <trip id="bus83" type="bus_bus" depart="161.30" departLane="best" from="-24747539#0" to="10274373"/>
    <trip id="bus84" type="bus_bus" depart="163.24" departLane="best" from="-705286366" to="135207185#0"/>
    <trip id="bus85" type="bus_bus" depart="165.19" departLane="best" departSpeed="max" from="32998093#0" to="32841682#2"/>
    <trip id="bus86" type="bus_bus" depart="167.13" departLane="best" from="96095212#4" to="-25714232#5"/>
    <trip id="bus87" type="bus_bus" depart="169.07" departLane="best" from="-547515124#4" to="-50457867"/>
    <trip id="bus88" type="bus_bus" depart="171.02" departLane="best" from="446737725#1" to="-37337875#1"/>
    <trip id="bus89" type="bus_bus" depart="172.96" departLane="best" from="-30932532#2" to="120422281#0"/>
    <trip id="bus90" type="bus_bus" depart="174.90" departLane="best" from="-705286357" to="-39074727#1"/>
    <trip id="bus91" type="bus_bus" depart="176.85" departLane="best" from="-364075852#2" to="74136311#1"/>
    <trip id="bus92" type="bus_bus" depart="178.79" departLane="best" from="-87222111#1" to="48957107"/>
    <trip id="bus93" type="bus_bus" depart="180.73" departLane="best" departSpeed="max" from="144845146#0" to="-155065899"/>
    <trip id="bus94" type="bus_bus" depart="182.68" departLane="best" from="94545456#7" to="751559970#6"/>
    <trip id="bus95" type="bus_bus" depart="184.62" departLane="best" from="42369811#1" to="-29726024#5"/>
    <trip id="bus96" type="bus_bus" depart="186.56" departLane="best" from="100873436" to="-35086102#0"/>
    <trip id="bus97" type="bus_bus" depart="188.51" departLane="best" from="-539627094#0" to="-179477993#0"/>
    <trip id="bus98" type="bus_bus" depart="190.45" departLane="best" departSpeed="max" from="-49303774" to="976088821"/>
    <trip id="bus99" type="bus_bus" depart="192.39" departLane="best" from="-37297216#7" to="39074731#1"/>
    <trip id="bus100" type="bus_bus" depart="194.34" departLane="best" from="-909038101#0" to="-98987550#1"/>
    <trip id="bus101" type="bus_bus" depart="196.28" departLane="best" from="897627849#6" to="98616629#0"/>
    <trip id="bus102" type="bus_bus" depart="198.22" departLane="best" from="164358770#7" to="35964673"/>
    <trip id="bus103" type="bus_bus" depart="200.17" departLane="best" from="94545456#4" to="27602812#6"/>
    <trip id="bus104" type="bus_bus" depart="202.11" departLane="best" from="137188635#2" to="37339235#0"/>
    <trip id="bus105" type="bus_bus" depart="204.05" departLane="best" from="-166481817" to="276049511#0"/>
    <trip id="bus106" type="bus_bus" depart="206.00" departLane="best" from="10968767#6" to="46894459"/>
    <trip id="bus107" type="bus_bus" depart="207.94" departLane="best" from="-28309482#0" to="94522269#2"/>
    <trip id="bus108" type="bus_bus" depart="209.88" departLane="best" from="-220331653" to="-30932533#0"/>
    <trip id="bus109" type="bus_bus" depart="211.83" departLane="best" from="23982030#2" to="32846419"/>
    <trip id="bus111" type="bus_bus" depart="215.71" departLane="best" from="50827065#0" to="-37297216#7"/>
    <trip id="bus112" type="bus_bus" depart="217.66" departLane="best" from="23982025#0" to="283174676#2"/>
    <trip id="bus113" type="bus_bus" depart="219.60" departLane="best" from="-640969021#3" to="276049497#1"/>
    <trip id="bus115" type="bus_bus" depart="223.49" departLane="best" from="-32841772#3" to="35547360#2"/>
    <trip id="bus116" type="bus_bus" depart="225.43" departLane="best" from="-35311221#1" to="-89387843#4"/>
    <trip id="bus117" type="bus_bus" depart="227.37" departLane="best" from="28290755#1" to="-402991388#1"/>
    <trip id="bus118" type="bus_bus" depart="229.32" departLane="best" from="-39092176#8" to="37389755#6"/>
    <trip id="bus119" type="bus_bus" depart="231.26" departLane="best" from="-19802211#4" to="134989555#3"/>
    <trip id="bus120" type="bus_bus" depart="233.20" departLane="best" from="98987549#0" to="986336000"/>
    <trip id="bus121" type="bus_bus" depart="235.15" departLane="best" from="-19802500#0" to="-35086101#0"/>
    <trip id="bus122" type="bus_bus" depart="237.09" departLane="best" from="-37297216#7" to="830322088"/>
    <trip id="bus123" type="bus_bus" depart="239.03" departLane="best" from="49303772#3" to="49436780#1"/>
    <trip id="bus124" type="bus_bus" depart="240.98" departLane="best" from="-47976461#0" to="-28343363#1"/>
    <trip id="bus125" type="bus_bus" depart="242.92" departLane="best" from="39447057#0" to="35286581#4"/>
    <trip id="bus126" type="bus_bus" depart="244.86" departLane="best" from="25640514#0" to="976088824#1"/>
    <trip id="bus127" type="bus_bus" depart="246.81" departLane="best" from="28054419#3" to="-105937793#4"/>
    <trip id="bus129" type="bus_bus" depart="250.69" departLane="best" from="28146422#3" to="87230821#1"/>
    <trip id="bus130" type="bus_bus" depart="252.64" departLane="best" from="-27815391#2" to="-27603102#2"/>
    <trip id="bus131" type="bus_bus" depart="254.58" departLane="best" from="-267279598" to="25627462#2"/>
    <trip id="bus132" type="bus_bus" depart="256.52" departLane="best" from="-37339236#4" to="28115065#3"/>
    <trip id="bus133" type="bus_bus" depart="258.47" departLane="best" from="31909891#3" to="-33114257#1"/>
    <trip id="bus134" type="bus_bus" depart="260.41" departLane="best" departSpeed="max" from="276041232" to="-39074660"/>
    <trip id="bus135" type="bus_bus" depart="262.35" departLane="best" departSpeed="max" from="1016970339#0" to="628514589#2"/>
    <trip id="bus136" type="bus_bus" depart="264.30" departLane="best" from="42029069#1" to="-24751258#5"/>
    <trip id="bus137" type="bus_bus" depart="266.24" departLane="best" from="-705286366" to="-39074722#4"/>
    <trip id="bus138" type="bus_bus" depart="268.18" departLane="best" from="-101768664#1" to="39074677#1"/>
    <trip id="bus141" type="bus_bus" depart="274.01" departLane="best" departSpeed="max" from="-739158041" to="-107632017#0"/>
    <trip id="bus142" type="bus_bus" depart="275.96" departLane="best" from="-19803072" to="50827288#1"/>
    <trip id="bus143" type="bus_bus" depart="277.90" departLane="best" from="560703491#0" to="24747539#7"/>
    <trip id="bus144" type="bus_bus" depart="279.84" departLane="best" from="39480479" to="276043560#1"/>
    <trip id="bus145" type="bus_bus" depart="281.79" departLane="best" from="-28123919#5" to="-27956779#5"/>
    <trip id="bus146" type="bus_bus" depart="283.73" departLane="best" departSpeed="max" from="-39074740#1" to="60587339#1"/>
    <trip id="bus147" type="bus_bus" depart="285.67" departLane="best" from="39074634#0" to="48845437#1"/>
    <trip id="bus149" type="bus_bus" depart="289.56" departLane="best" from="-364075852#10" to="-267800499#2"/>
    <trip id="bus150" type="bus_bus" depart="291.50" departLane="best" from="37297216#10" to="50827373#1"/>
    <trip id="bus151" type="bus_bus" depart="293.45" departLane="best" from="-560703491#0" to="283174680#6"/>
    <trip id="bus152" type="bus_bus" depart="295.39" departLane="best" from="-28242205#3" to="783602104#3"/>
    <trip id="bus153" type="bus_bus" depart="297.33" departLane="best" from="452064665" to="94851948#0"/>
    <trip id="bus154" type="bus_bus" depart="299.28" departLane="best" departSpeed="max" from="39074713#0" to="502336779"/>
    <trip id="bus155" type="bus_bus" depart="301.22" departLane="best" from="-134989549#3" to="37297207#2"/>
    <trip id="bus156" type="bus_bus" depart="303.16" departLane="best" departSpeed="max" from="-39861923" to="786305338#0"/>
    <trip id="bus157" type="bus_bus" depart="305.11" departLane="best" from="39074665#9" to="49303720#0"/>
    <trip id="bus158" type="bus_bus" depart="307.05" departLane="best" departSpeed="max" from="39074713#0" to="-39074671#0"/>
    <trip id="bus159" type="bus_bus" depart="308.99" departLane="best" departSpeed="max" from="37339239#0" to="-27601328"/>
    <trip id="bus160" type="bus_bus" depart="310.94" departLane="best" from="465257430" to="48833976"/>
    <trip id="bus161" type="bus_bus" depart="312.88" departLane="best" departSpeed="max" from="-35286494#2" to="41912194"/>
    <trip id="bus162" type="bus_bus" depart="314.82" departLane="best" from="-94522263#2" to="-41984586#3"/>
    <trip id="bus163" type="bus_bus" depart="316.77" departLane="best" from="387290889#1" to="-35312394#1"/>
    <trip id="bus164" type="bus_bus" depart="318.71" departLane="best" from="-134727279#8" to="-32599885#0"/>
    <trip id="bus165" type="bus_bus" depart="320.65" departLane="best" from="-39861911" to="49303720#1"/>
    <trip id="bus166" type="bus_bus" depart="322.60" departLane="best" from="94522275#0" to="-39074728#1"/>
    <trip id="bus167" type="bus_bus" depart="324.54" departLane="best" from="27684082#1" to="-91004714"/>
    <trip id="bus168" type="bus_bus" depart="326.48" departLane="best" from="95094994#5" to="22386057#0"/>
    <trip id="bus169" type="bus_bus" depart="328.43" departLane="best" from="866030035#3" to="-27603102#1"/>
    <trip id="bus170" type="bus_bus" depart="330.37" departLane="best" from="94602961#0" to="-30505619#2"/>
    <trip id="bus171" type="bus_bus" depart="332.31" departLane="best" from="93752636" to="-39074665#6"/>
    <trip id="bus172" type="bus_bus" depart="334.26" departLane="best" from="-267279605" to="104279426#0"/>
    <trip id="bus173" type="bus_bus" depart="336.20" departLane="best" departSpeed="max" from="25067573#0" to="190196878#3"/>
    <trip id="bus174" type="bus_bus" depart="338.14" departLane="best" from="-49333382#0" to="27602302#0"/>
    <trip id="bus175" type="bus_bus" depart="340.09" departLane="best" from="-37297189#0" to="35286597#1"/>
    <trip id="bus176" type="bus_bus" depart="342.03" departLane="best" departSpeed="max" from="-101433147#3" to="751559970#10"/>
    <trip id="bus178" type="bus_bus" depart="345.92" departLane="best" from="-465257430" to="-19803068#0"/>
    <trip id="bus179" type="bus_bus" depart="347.86" departLane="best" from="28154569#2" to="-49302771#3"/>
    <trip id="bus180" type="bus_bus" depart="349.80" departLane="best" from="-39074769#3" to="464569973#0"/>
    <trip id="bus181" type="bus_bus" depart="351.75" departLane="best" from="31909914#3" to="-40716735#2"/>
    <trip id="bus182" type="bus_bus" depart="353.69" departLane="best" from="-39074745#3" to="-94711858#1"/>
    <trip id="bus183" type="bus_bus" depart="355.63" departLane="best" from="-547515124#1" to="-397566012#0"/>
    <trip id="bus184" type="bus_bus" depart="357.58" departLane="best" from="867036815#1" to="33004562#0"/>
    <trip id="bus185" type="bus_bus" depart="359.52" departLane="best" from="-101433081#1" to="-39074776#0"/>
    <trip id="bus186" type="bus_bus" depart="361.46" departLane="best" departSpeed="max" from="-74320145" to="27602813#3"/>
    <trip id="bus187" type="bus_bus" depart="363.41" departLane="best" from="28055519#5" to="134989592#0"/>
    <trip id="bus188" type="bus_bus" depart="365.35" departLane="best" from="-866030037#0" to="-35086101#3"/>
    <trip id="bus189" type="bus_bus" depart="367.29" departLane="best" from="-96652806#1" to="609004139"/>
    <trip id="bus190" type="bus_bus" depart="369.24" departLane="best" from="388185755#2" to="-29741089#9"/>
    <trip id="bus191" type="bus_bus" depart="371.18" departLane="best" from="-220487401" to="19802211#4"/>
    <trip id="bus192" type="bus_bus" depart="373.13" departLane="best" from="27603102#3" to="-49331515#1"/>
    <trip id="bus193" type="bus_bus" depart="375.07" departLane="best" from="39074741#4" to="37389755#10"/>
    <trip id="bus194" type="bus_bus" depart="377.01" departLane="best" from="28309480#3" to="-35311160#0"/>
    <trip id="bus195" type="bus_bus" depart="378.96" departLane="best" from="-32841506#1" to="-134989576#1"/>
    <trip id="bus196" type="bus_bus" depart="380.90" departLane="best" from="-359836053#2" to="135207225#3"/>
    <trip id="bus197" type="bus_bus" depart="382.84" departLane="best" from="431505956#2" to="-19803517#11"/>
    <trip id="bus198" type="bus_bus" depart="384.79" departLane="best" from="-628514588#0" to="29713142#2"/>
    <trip id="bus199" type="bus_bus" depart="386.73" departLane="best" from="-31909886#4" to="35286501#1"/>
    <trip id="bus200" type="bus_bus" depart="388.67" departLane="best" from="10426675" to="-37297212#1"/>
    <trip id="bus201" type="bus_bus" depart="390.62" departLane="best" departSpeed="max" from="28055525" to="-104278989#0"/>
    <trip id="bus202" type="bus_bus" depart="392.56" departLane="best" from="35286572#2" to="39074669#4"/>
    <trip id="bus203" type="bus_bus" depart="394.50" departLane="best" from="-265813637#0" to="101391739"/>
    <trip id="bus204" type="bus_bus" depart="396.45" departLane="best" departSpeed="max" from="-29741604" to="94178609"/>
    <trip id="bus205" type="bus_bus" depart="398.39" departLane="best" from="134989560" to="-155065899"/>
    <trip id="bus206" type="bus_bus" depart="400.33" departLane="best" from="-93634653#1" to="39193487#3"/>
    <trip id="bus207" type="bus_bus" depart="402.28" departLane="best" from="28157584#2" to="976088829#2"/>
    <trip id="bus208" type="bus_bus" depart="404.22" departLane="best" from="23982033#1" to="897210494#0"/>
    <trip id="bus210" type="bus_bus" depart="408.11" departLane="best" from="31909909#4" to="179986433#0"/>
    <trip id="bus211" type="bus_bus" depart="410.05" departLane="best" from="39193487#23" to="24829253"/>
    <trip id="bus212" type="bus_bus" depart="411.99" departLane="best" from="52347988#2" to="37297223#1"/>
    <trip id="bus213" type="bus_bus" depart="413.94" departLane="best" from="-976088819#3" to="-387290889#2"/>
    <trip id="bus214" type="bus_bus" depart="415.88" departLane="best" departSpeed="max" from="-36055585" to="29741512#0"/>
    <trip id="bus215" type="bus_bus" depart="417.82" departLane="best" from="35964673" to="19803517#1"/>
    <trip id="bus216" type="bus_bus" depart="419.77" departLane="best" from="27601567#0" to="-39074713#0"/>
    <trip id="bus217" type="bus_bus" depart="421.71" departLane="best" from="-19803517#11" to="-39074767#1"/>
    <trip id="bus218" type="bus_bus" depart="423.65" departLane="best" from="-37339235#2" to="-458344529#1"/>
    <trip id="bus219" type="bus_bus" depart="425.60" departLane="best" from="136641146#0" to="-28115065#4"/>
    <trip id="bus220" type="bus_bus" depart="427.54" departLane="best" departSpeed="max" from="-35286581#8" to="35286494#0"/>
    <trip id="bus221" type="bus_bus" depart="429.48" departLane="best" from="30596346#3" to="-190196878#1"/>
    <trip id="bus222" type="bus_bus" depart="431.43" departLane="best" from="-586401949#3" to="24544105#3"/>
    <trip id="bus223" type="bus_bus" depart="433.37" departLane="best" from="-628514589#6" to="-34965703#2"/>
    <trip id="bus224" type="bus_bus" depart="435.31" departLane="best" from="220331655#6" to="35286496#3"/>
    <trip id="bus225" type="bus_bus" depart="437.26" departLane="best" from="43550480#8" to="39074654#1"/>
    <trip id="bus226" type="bus_bus" depart="439.20" departLane="best" departSpeed="max" from="-49331161" to="-104278989#3"/>
    <trip id="bus227" type="bus_bus" depart="441.14" departLane="best" from="-443045111#2" to="37390158#2"/>
    <trip id="bus228" type="bus_bus" depart="443.09" departLane="best" from="-640969021#1" to="37337878#7"/>
    <trip id="bus229" type="bus_bus" depart="445.03" departLane="best" from="139344048#1" to="28055521"/>
    <trip id="bus230" type="bus_bus" depart="446.97" departLane="best" from="-35086102#2" to="-35286576#0"/>
    <trip id="bus231" type="bus_bus" depart="448.92" departLane="best" from="-783602104#3" to="-135207188#0"/>
    <trip id="bus232" type="bus_bus" depart="450.86" departLane="best" from="-41912191#0" to="330757768#4"/>
    <trip id="bus233" type="bus_bus" depart="452.80" departLane="best" departSpeed="max" from="-54932400#1" to="-29713148#1"/>
    <trip id="bus234" type="bus_bus" depart="454.75" departLane="best" from="-94727490#3" to="-27956783"/>
    <trip id="bus235" type="bus_bus" depart="456.69" departLane="best" from="27549448#1" to="-135160800"/>
    <trip id="bus236" type="bus_bus" depart="458.63" departLane="best" from="-50827068#0" to="268181274"/>
    <trip id="bus237" type="bus_bus" depart="460.58" departLane="best" departSpeed="max" from="-134989561#4" to="29985851#6"/>
    <trip id="bus238" type="bus_bus" depart="462.52" departLane="best" from="-27956779#0" to="134989579#3"/>
    <trip id="bus239" type="bus_bus" depart="464.46" departLane="best" from="-140549288#4" to="-795308535"/>
    <trip id="bus240" type="bus_bus" depart="466.41" departLane="best" departSpeed="max" from="-33728108#2" to="-480094523#1"/>
    <trip id="bus241" type="bus_bus" depart="468.35" departLane="best" from="35312429#3" to="-795308535"/>
    <trip id="bus242" type="bus_bus" depart="470.29" departLane="best" departSpeed="max" from="35286576#0" to="436156032#2"/>
    <trip id="bus243" type="bus_bus" depart="472.24" departLane="best" departSpeed="max" from="-36872881" to="-22384595#5"/>
    <trip id="bus244" type="bus_bus" depart="474.18" departLane="best" from="99861283#2" to="-553458837"/>
    <trip id="bus245" type="bus_bus" depart="476.12" departLane="best" departSpeed="max" from="28032238#0" to="39074722#1"/>
    <trip id="bus246" type="bus_bus" depart="478.07" departLane="best" from="28037300#8" to="37408139#1"/>
    <trip id="bus247" type="bus_bus" depart="480.01" departLane="best" departSpeed="max" from="89307457" to="-32998093#5"/>
    <trip id="bus248" type="bus_bus" depart="481.95" departLane="best" departSpeed="max" from="-120520516#1" to="-28309480#3"/>
    <trip id="bus249" type="bus_bus" depart="483.90" departLane="best" from="-276043556#1" to="32787503#1"/>
    <trip id="bus250" type="bus_bus" depart="485.84" departLane="best" from="179987470#3" to="-35286507#3"/>
    <trip id="bus251" type="bus_bus" depart="487.78" departLane="best" from="30154366#1" to="39074656#2"/>
    <trip id="bus252" type="bus_bus" depart="489.73" departLane="best" from="35286496#0" to="-27602812#6"/>
    <trip id="bus253" type="bus_bus" depart="491.67" departLane="best" from="39074756#0" to="94545456#5"/>
    <trip id="bus254" type="bus_bus" depart="493.61" departLane="best" from="-267279604#2" to="-134989580#2"/>
    <trip id="bus255" type="bus_bus" depart="495.56" departLane="best" from="-39074763#4" to="33004562#0"/>
    <trip id="bus256" type="bus_bus" depart="497.50" departLane="best" from="909038140#1" to="-89586579#0"/>
    <trip id="bus257" type="bus_bus" depart="499.44" departLane="best" from="313916274" to="-220331659#0"/>
    <trip id="bus258" type="bus_bus" depart="501.39" departLane="best" from="29730000#0" to="28920729#1"/>
    <trip id="bus259" type="bus_bus" depart="503.33" departLane="best" from="-25627415#2" to="39074685#9"/>
    <trip id="bus260" type="bus_bus" depart="505.27" departLane="best" from="431505956#7" to="28037730#4"/>
    <trip id="bus261" type="bus_bus" depart="507.22" departLane="best" from="-27602302#2" to="976088814#3"/>
    <trip id="bus262" type="bus_bus" depart="509.16" departLane="best" from="37297221#2" to="-53620026"/>
    <trip id="bus263" type="bus_bus" depart="511.10" departLane="best" departSpeed="max" from="-74136308" to="-72738315#2"/>
    <trip id="bus264" type="bus_bus" depart="513.05" departLane="best" from="115953540#2" to="-50827289#0"/>
    <trip id="bus265" type="bus_bus" depart="514.99" departLane="best" from="431505956#1" to="420302482#0"/>
    <trip id="bus266" type="bus_bus" depart="516.93" departLane="best" from="-25867170" to="94522269#2"/>
    <trip id="bus268" type="bus_bus" depart="520.82" departLane="best" from="30606633#0" to="10432693"/>
    <trip id="bus269" type="bus_bus" depart="522.76" departLane="best" from="-37337875#2" to="39861919#4"/>
    <trip id="bus270" type="bus_bus" depart="524.71" departLane="best" from="135207249#4" to="137312622"/>
    <trip id="bus271" type="bus_bus" depart="526.65" departLane="best" from="-783602104#0" to="37297189#1"/>
    <trip id="bus272" type="bus_bus" depart="528.59" departLane="best" departSpeed="max" from="-37297223#3" to="46822946"/>
    <trip id="bus273" type="bus_bus" depart="530.54" departLane="best" from="39193487#4" to="-243319420#0"/>