<?xml version="1.0" encoding="UTF-8"?>
<!-- generated on 2022-03-05 21:40:11.419843 by $Id: ptlines2flows.py v1_3_1+0313-ccb31df3eb jakob.erdmann@dlr.de 2019-09-02 13:26:32 +0200 $ v1_12_0+0000-800cb422fa4
  options: 
-->
<routes xmlns:xsi="http://www.w3.org/2001/XMLSchema-instance" xsi:noNamespaceSchemaLocation="http://sumo.dlr.de/xsd/routes_file.xsd">
    <vType id="pt_bus" vClass="bus"/>
    <vType id="pt_tram" vClass="tram"/>
    <vType id="pt_train" vClass="rail"/>
    <vType id="pt_subway" vClass="rail_urban"/>
    <vType id="pt_light_rail" vClass="rail_urban"/>
    <vType id="pt_monorail" vClass="rail"/>
    <vType id="pt_trolleybus" vClass="bus"/>
    <vType id="pt_minibus" vClass="bus"/>
    <vType id="pt_share_taxi" vClass="taxi"/>
    <vType id="pt_aerialway" vClass="bus"/>
    <vType id="pt_ferry" vClass="ship"/>
    <route id="pt_train_S99:0" edges="86320760" >
        <stop busStop="1002463599" duration="20" until="31.0"/> <!-- Luzern -->
    </route>
    <route id="pt_train_IR_70:0" edges="-834322750 -86320687 -86320968#1 -115969649#1 -115969649#0 30265506#4 86320913#1 86320913#2 773836910 116828436 87230766 194755454 10853494#1 194755453 87230806#1 87230811#1 96928656 -196352164 -87230813 -197445064 194752642 430415318 194752640" >
    </route>
    <route id="pt_bus_16:0" edges="751559970#0 751559970#1 751559970#2 751559970#3 751559970#4 751559970#5 751559970#6 751559970#7 751559970#8 751559970#9 751559970#10 751559970#11 751559970#12 -28069843#5 -28069843#4 -28069843#3 -28069843#2 -28069843#0 30505619#0 30505619#1 30505619#2 30505619#3 276049497#0 276049497#1 276049497#4 867036815#1 30765082#1 30765082#2 553458838 276043557 553458837 30111222 434705280 94711861#0 94711861#1 779241617 46822948" >
        <stop busStop="336669906" duration="20" until="60.0"/> <!-- Sportweg -->
        <stop busStop="336669876" duration="20" until="122.0"/> <!-- Zunacher -->
        <stop busStop="-336706429" duration="20" until="182.0"/> <!-- Grossfeldstrasse -->
        <stop busStop="1406220211" duration="20" until="243.0"/> <!-- Hofmatt-Bellpark -->
        <stop busStop="1485039419" duration="20" until="301.0"/> <!-- Zentrum Pilatus -->
        <stop busStop="598101627" duration="20" until="363.0"/> <!-- Kriens Busschleife -->
    </route>
    <route id="pt_bus_N33:1" edges="29730545#1 -115953540#4 -115953540#3 -115953540#1 -115953540#0 -25640511 134989551#0 134989551#1 179839873#0 179839873#1 94603025 94603075 94603000 94603059 94602900 94602944 94602961#0 94602961#1 94728338 94721111#0 94721111#2 144968178 53620033 44129718 31264893 444584961#0 184818318#0 206490679 120517467#0 39447057#0 96652797#0 305482866#0 134989584#0 134989584#2 134989584#3 121516959#1 121516958#0 121516958#1 121516958#2 452295145 452295147#0 -95094998#0 -32787503#3 -32787503#1 -32787503#0 10968765#0 10968765#1 10426676 74320151 298490058 24544092 10306683 42264604 184858278 421289859 298490969" >
        <stop busStop="7005106863" duration="20" until="56.0"/> <!-- Luzern, Inseli -->
    </route>
    <route id="pt_train_S9:0" edges="194675922" >
        <stop busStop="333555694" duration="20" until="39.0"/> <!-- Luzern -->
    </route>
    <route id="pt_bus_72:0" color="255,204,0" edges="93752640 94603000 94603059 94602900 94602944 94602961#0 94602961#1 94728338 94721111#0 94721111#2 144968178 53620033 44129718 31264893 444584961#0 184818318#0 206490679 120517467#0 39447057#0 96652797#0 305482866#0 134989584#0 134989584#2 134989584#3 121516959#1 121516958#0 121516958#1 121516958#2 452295145 452295147#0 -95094998#0 -32787503#3 -32787503#1 -32787503#0 10968767#0 10968767#2 10968767#3 10968767#4 10968767#5 10968767#6 10968767#7 10968767#8 10968767#9 201725670#0 32846421#1 74320151 298490058 24544092 10306683 42264604 184858278 421289859 298490969" >
        <stop busStop="598172367" duration="20" until="31.0"/> <!-- Luzern Bahnhof -->
        <stop busStop="1483240186" duration="20" until="172.0"/> <!-- Pilatusplatz -->
        <stop busStop="311606382" duration="20" until="254.0"/> <!-- Kasernenplatz -->
    </route>
    <route id="pt_bus_N33:0" edges="39480378 39480415 42265223#1 42265219 184750474 184858279 10274373 24544096 24544097 24544094 24544099 542954995 201725697 420302482#0 43418077#0 43418077#2 43418077#3 32787503#0 32787503#1 32787503#2 95094998#0 134989618 157304012#0 157304012#3 201725669#0 201725669#1 201725669#2 -305482866#0 -96652797#2 -39447057#1 -120517467#1 -206490679 -184818318#1 128956080#1 98779324#0 98779324#1 179839874#0 146343278 74320153 53620033 35964672#1 10432693 35964673 94721113#0 94721113#1 94721113#2 94602911 94602990 94603047 94603062 94603096 94602949 94603009#0 94603009#1 94603009#2 31264906#0 31264906#1 25640511 115953540#0 115953540#1 115953540#2 115953540#4 115953541#0 29730545#0 29730545#1" >
        <stop busStop="7005106863" duration="20" until="487.0"/> <!-- Luzern, Inseli -->
    </route>
    <route id="pt_train_S77:1" edges="-834322754 -194672511#0 -116828439 -773836909#1 -773836909#0 -116828438 116828436 87230766 194755454 10853494#1 194755453 87230806#1 87230811#1 96928656 -196352164 -87230813 194752631 87230807#1 -95094997 -25921504 -196661157 -665158083 -795469561 -196661156#1 -196661156#0 -101433223" >
        <stop busStop="-7908898589" duration="20" until="31.0"/> <!-- Luzern -->
        <stop busStop="-283223448" duration="20" until="361.0"/> <!-- Littau -->
    </route>
    <route id="pt_train_S77:0" edges="101433223 196661156#0 196661156#1 795469561 795291375 196661157 25921504 25921503 -87230807#1 -194752631 196352165 196352164 -96928655 -96928644 -87230811#0 -194755453 -10853494#1 -194755454 -197135813 -116828436 116828438 773836909#0 773836909#1 116828439 194672511#0 194672511#1" >
        <stop busStop="283223448" duration="20" until="122.0"/> <!-- Littau -->
        <stop busStop="7908898589" duration="20" until="472.0"/> <!-- Luzern -->
    </route>
    <route id="pt_train_480:0" edges="118745118" >
        <stop busStop="2051794005" duration="20" until="58.0"/> <!-- Luzern -->
    </route>
    <route id="pt_bus_25:0" edges="-142976777 -640969021#3 -640969021#1 -640969021#0 -638331107#5 -638331107#4 -638331107#3 -638331107#2 -638331107#0 -638331110 -388185755#1 -388185755#0 -37297192#1 -37297192#0 37297191#0 37297191#1 37297191#3 37297191#4 37297191#5 37297191#6 37297191#7 37297191#8 37297191#9 37297191#10 37297191#11 37297191#12 37297191#13 -142976789 -94522273#11 -94522273#10 -94522273#9 -94522273#7 -94522273#6 -94522273#5 -94522273#4 -94522273#3 -94522273#2 -94522273#1 -1016970339#1 -1016970339#0 98616633#0 98616633#2" >
        <stop busStop="-984739343" duration="20" until="40.0"/> <!-- Klösterli -->
        <stop busStop="-984739344" duration="20" until="102.0"/> <!-- Hochrüti -->
        <stop busStop="-984739319" duration="20" until="170.0"/> <!-- Buchmatt -->
        <stop busStop="-758982155" duration="20" until="246.0"/> <!-- Eggen -->
        <stop busStop="758982143" duration="20" until="302.0"/> <!-- Oberseeburghöhe -->
        <stop busStop="434635992" duration="20" until="364.0"/> <!-- Oberseeburg -->
        <stop busStop="-206357913" duration="20" until="439.0"/> <!-- Giseli -->
        <stop busStop="665978819" duration="20" until="504.0"/> <!-- Brüelstrasse -->
    </route>
    <route id="pt_train_S6:1" edges="-834322751 -86320687 -86320968#1 -115969649#1 -115969649#0 30265506#4 86320913#1 86320913#2 773836910 116828436 87230766 194755454 10853494#1 194755453 87230806#1 87230811#1 96928656 -196352164 -87230813 194752631 87230807#1 -95094997 -25921504 -196661157 -665158083 -795469561 -196661156#1 -196661156#0 -101433223" >
        <stop busStop="-1002465533" duration="20" until="31.0"/> <!-- Luzern -->
        <stop busStop="-283223448" duration="20" until="331.0"/> <!-- Littau -->
    </route>
    <route id="pt_bus_52:1" edges="394000861 39480415 42265223#1 42265219 184750474 184858279 10274373 24544096 24544097 24544094 24544099 542954995 201725697 420302482#0 43418077#0 43418077#2 43418077#3 32787503#0 32787503#1 32787503#2 95094998#0 134989618 157304012#0 157304012#3 201725669#0 201725669#1 201725669#2 -305482866#0 -96652797#2 -39447057#1 -120517467#1 -206490679 -184818318#1 128956080#1 98779324#0 98779324#1 179839874#0 146343278 74320153 53620033 35964672#1 10432693 35964673 94721113#0 94721113#1 94721113#2 94602911 94602990 94603047 93752629 94603084 93752648" >
        <stop busStop="97765117" duration="20" until="171.0"/> <!-- Kasernenplatz -->
        <stop busStop="-260019054" duration="20" until="296.0"/> <!-- Pilatusplatz -->
        <stop busStop="598172363" duration="20" until="474.0"/> <!-- Luzern Bahnhof -->
    </route>
    <route id="pt_bus_25:1" edges="98616633#2 19802202#1 19802202#2 1016970338#1 1016970338#2 1016970353#1 1016970353#2 19802197#1 19802197#2 1016970340#0 1016970340#1 1016970340#3 1016970339#1 94522273#1 94522273#2 94522273#3 94522273#4 94522273#5 94522273#6 94522273#7 94522273#9 94522273#10 94522273#11 142976789 -37297191#13 -37297191#12 -37297191#11 -37297191#10 -37297191#9 -37297191#8 -37297191#7 -37297191#6 -37297191#5 -37297191#4 -37297191#3 -37297191#1 -37297191#0 37297192#0 37297192#1 388185755#0 388185755#1 388185755#2 638331107#0 638331107#2 638331107#3 638331107#4 638331107#5 640969021#0 640969021#1 640969021#3 142976777" >
        <stop busStop="665978819" duration="20" until="40.0"/> <!-- Brüelstrasse -->
        <stop busStop="206357913" duration="20" until="121.0"/> <!-- Giseli -->
        <stop busStop="-434635992" duration="20" until="199.0"/> <!-- Oberseeburg -->
        <stop busStop="-758982143" duration="20" until="261.0"/> <!-- Oberseeburghöhe -->
        <stop busStop="206357943" duration="20" until="326.0"/> <!-- Eggen -->
        <stop busStop="984739350" duration="20" until="381.0"/> <!-- Englisch Friedhof -->
        <stop busStop="984739319" duration="20" until="441.0"/> <!-- Buchmatt -->
        <stop busStop="1140909292" duration="20" until="509.0"/> <!-- Hochrüti -->
    </route>
    <route id="pt_bus_46:0" edges="39074639#0 39074639#1 43418079#0 43418079#1 445000444 445092733#0 445092733#1 134727279#0 134727279#1 134727279#2 134727279#3 134727279#7 134727279#8 98987549#2 134727278#0 134727278#1 134727278#2 134727278#4 134727278#5 93634836 98987548 134727280#0 134727280#1 134727280#2" >
        <stop busStop="7276082761" duration="20" until="64.0"/> <!-- Frohburg -->
        <stop busStop="4420078769" duration="20" until="153.0"/> <!-- Staffeln Schulhaus -->
        <stop busStop="1480899669" duration="20" until="227.0"/> <!-- Ruopigen Zentrum -->
    </route>
    <route id="pt_train_IC_21:0" edges="118745118" >
        <stop busStop="2051794005" duration="20" until="97.0"/> <!-- Luzern -->
    </route>
    <route id="pt_train_S3:0" edges="-26096354 -39862002#0 -262922537 -103893340 -27601634#2 -27601634#1 -27601634#0 -135207290 -10853494#1 -194755454 -197135813 -116828436 -773836910 -86320913#2 -86320913#1 -30265506#4 -30265506#3 116828544 773813396 86320760" >
        <stop busStop="-1398732992" duration="20" until="212.0"/> <!-- Luzern Verkehrshaus -->
        <stop busStop="1002463599" duration="20" until="561.0"/> <!-- Luzern -->
    </route>
    <route id="pt_bus_52:0" edges="93752648 94602944 94602961#0 94602961#1 94728338 94721111#0 94721111#2 144968178 53620033 44129718 31264893 444584961#0 184818318#0 206490679 120517467#0 39447057#0 96652797#0 305482866#0 134989584#0 134989584#2 134989584#3 121516959#1 121516958#0 121516958#1 121516958#2 452295145 452295147#0 -95094998#0 -32787503#3 -32787503#1 -32787503#0 10968767#0 10968767#2 10968767#3 10968767#4 10968767#5 10968767#6 10968767#7 10968767#8 10968767#9 201725670#0 32846421#1 74320151 298490058 24544092 10306683 42264604 184858278 421289859 298490969" >
        <stop busStop="598172363" duration="20" until="38.0"/> <!-- Luzern Bahnhof -->
        <stop busStop="1483240186" duration="20" until="225.0"/> <!-- Pilatusplatz -->
        <stop busStop="311606382" duration="20" until="307.0"/> <!-- Kasernenplatz -->
    </route>
    <route id="pt_bus_52:3" edges="394000861 39480415 42265223#1 42265219 184750474 184858279 10274373 24544096 24544097 24544094 24544099 542954995 201725697 420302482#0 43418077#0 43418077#2 43418077#3 32787503#0 32787503#1 32787503#2 95094998#0 134989618 157304012#0 157304012#3 201725669#0 201725669#1 201725669#2 -305482866#0 -96652797#2 -39447057#1 -120517467#1 -206490679 -184818318#1 128956080#1 98779324#0 98779324#1 179839874#0 146343278 74320153 53620033 35964672#1 10432693 35964673 94721113#0 94721113#1 94721113#2 94602911 94602990 94603047 93752629 94603084 93752648" >
        <stop busStop="97765117" duration="20" until="208.0"/> <!-- Kasernenplatz -->
        <stop busStop="-260019054" duration="20" until="327.0"/> <!-- Pilatusplatz -->
        <stop busStop="598172363" duration="20" until="515.0"/> <!-- Luzern Bahnhof -->
    </route>
    <route id="pt_trolleybus_4:0" edges="94727480#1 94721116 94721111#0 94721111#2 144968178 53620033 44129718 31264893 444584961#0 184818318#0 206490679 120517467#0 -397546364#1 -772705476 -772705478 -305482859#6 -305482859#5 -305482859#3 -305482859#2 -305482859#1 -305482859#0 4538163#1 305482857 30808996 658509487 305482863 305482879 305647816 305482861#0 305482861#1 305482861#2 305482861#4 305482861#5 -135207207#2 -135207207#1 -135207207#0 -750730565 135207249#0 135207249#1 135207249#2 135207249#3 135207249#4 135207249#5 135207249#6 135207249#7 179987470#0 179987470#2 179987470#3 179987470#4 24544106#0 24544106#1 24544106#2 37389755#0 37389755#1 37389755#2 37389755#3 37389755#4 37389755#5 37389755#6 37389755#7" >
        <stop busStop="598172353" duration="20" until="35.0"/> <!-- Luzern Bahnhof -->
        <stop busStop="-7274331909" duration="20" until="168.0"/> <!-- Kantonalbank -->
        <stop busStop="-472459433" duration="20" until="239.0"/> <!-- Bundesplatz -->
        <stop busStop="984024081" duration="20" until="328.0"/> <!-- Brünigstrasse -->
        <stop busStop="1485039575" duration="20" until="390.0"/> <!-- Tiefe -->
        <stop busStop="-7274331934" duration="20" until="486.0"/> <!-- Steghof -->
        <stop busStop="7274331199" duration="20" until="574.0"/> <!-- Breitenlachen -->
    </route>
    <route id="pt_train_IC_21:1" edges="118745118" >
        <stop busStop="2051794005" duration="20" until="97.0"/> <!-- Luzern -->
    </route>
    <route id="pt_train_S99:1" edges="28967633 -194752636 -430415323#1 -430415323#0 -87230807#1 -194752631 196352165 196352164 -96928655 -96928644 -87230811#0 -194755453 -10853494#1 -194755454 -197135813 -116828436 -773836910 -86320913#2 -86320913#1 -30265506#4 -30265506#3 116828544 773813396 86320760" >
        <stop busStop="1002463599" duration="20" until="343.0"/> <!-- Luzern -->
    </route>
    <route id="pt_bus_42:0" edges="-39074665#0 -769694982#0 -866204098#1 -866204098#0 -19803072 -866204097 -19803068#7 -19803068#6 -19803068#5 -19803068#4 -19803068#3 -19803068#2 -19803068#0 98987549#1 -134727279#8 -134727279#7 -134727279#3 -134727279#2 -134727279#1 -134727279#0 -445092733#1 -445092733#0 -445000444 -43418079#1 -43418079#0 -39074639#1 -39074639#0" >
        <stop busStop="-7184667178" duration="20" until="39.0"/> <!-- Waldstrasse -->
        <stop busStop="-7184667176" duration="20" until="114.0"/> <!-- Obermättlistrasse -->
        <stop busStop="-4420078769" duration="20" until="182.0"/> <!-- Staffeln Schulhaus -->
        <stop busStop="-7276082761" duration="20" until="275.0"/> <!-- Frohburg -->
    </route>
    <route id="pt_bus_71:0" color="255,204,0" edges="93752631 94603059 94602900 94602944 94602961#0 94602961#1 94728338 94721111#0 94721111#2 144968178 53620033 44129718 31264893 444584961#0 184818318#0 206490679 120517467#0 39447057#0 96652797#0 305482866#0 397705245#3 397705249 397705250 8428661#0 8428661#1 8428661#3 8428661#5 8428661#7 386850954#1 10426673 51080602 397705254#0 397705254#1 397705254#3 397705254#4 986336000 986336001#2 32767128 -32767128 -986336001#2 986336001#2 32767128 97804877#0 386850830#0 386850830#1 542709066 23982027 434323189 923125110 923125109 923125108 24668589 542717331#0 434317202#0 434317202#3 387290889#0 387290889#1 387290889#2 818077657#0 818077657#4 818077657#5 818077657#6 818077657#7 30505619#0 30505619#1 30505619#2 30505619#3 276049497#0 276049497#1 276049497#4 867036815#1" >
        <stop busStop="598172365" duration="20" until="35.0"/> <!-- Luzern Bahnhof -->
        <stop busStop="28197903" duration="20" until="177.0"/> <!-- Pilatusplatz -->
        <stop busStop="-7272347245" duration="20" until="329.0"/> <!-- Eichhof -->
        <stop busStop="260019068" duration="20" until="458.0"/> <!-- Alpenstrasse -->
    </route>
    <route id="pt_bus_52:2" edges="93752648 94602944 94602961#0 94602961#1 94728338 94721111#0 94721111#2 144968178 53620033 44129718 31264893 444584961#0 184818318#0 206490679 120517467#0 39447057#0 96652797#0 305482866#0 134989584#0 134989584#2 134989584#3 121516959#1 121516958#0 121516958#1 121516958#2 452295145 452295147#0 -95094998#0 -32787503#3 -32787503#1 -32787503#0 10968767#0 10968767#2 10968767#3 10968767#4 10968767#5 10968767#6 10968767#7 10968767#8 10968767#9 201725670#0 32846421#1 74320151 298490058 24544092 10306683 42264604 184858278 421289859 298490969" >
        <stop busStop="598172363" duration="20" until="37.0"/> <!-- Luzern Bahnhof -->
        <stop busStop="1483240186" duration="20" until="259.0"/> <!-- Pilatusplatz -->
        <stop busStop="311606382" duration="20" until="386.0"/> <!-- Kasernenplatz -->
    </route>
    <route id="pt_train_S6:0" edges="101433223 196661156#0 196661156#1 795469561 795291375 196661157 25921504 25921503 -87230807#1 -194752631 196352165 196352164 -96928655 -96928644 -87230811#0 -194755453 -10853494#1 -194755454 -197135813 -116828436 -773836910 -86320913#2 -86320913#1 -30265506#4 115969649#0 115969649#1 86320968#1 86320687 86320371" >
        <stop busStop="283223448" duration="20" until="122.0"/> <!-- Littau -->
        <stop busStop="1002465533" duration="20" until="502.0"/> <!-- Luzern -->
    </route>
    <route id="pt_bus_15:2" edges="-94711857 -106697016#3 -106697016#2 -106697016#1 -106697016#0 -465257430 -28324076#2 -28324076#1 -28324076#0 -28225078 37339241#0 37339241#1 28154804#0 28154804#1 28154804#2 -37339240#2 -37339240#1 -37339240#0 -28069843#5 -28069843#4 -28069843#3 -28069843#2 -28069843#0 30505619#0 30505619#1 30505619#2 30505619#3 276049497#0 276049497#1 276049497#4 867036815#1 30765082#1 30765082#2 553458838 276043557 553458837 30111222 434705280 94711861#0 94711861#1 779241617 46822949" >
        <stop busStop="-310005930" duration="20" until="31.0"/> <!-- Pilatus-Bahnen -->
        <stop busStop="-435245567" duration="20" until="82.0"/> <!-- Kirchbühl -->
        <stop busStop="331818267" duration="20" until="183.0"/> <!-- Krauerhalle -->
        <stop busStop="-336706429" duration="20" until="251.0"/> <!-- Grossfeldstrasse -->
        <stop busStop="1406220211" duration="20" until="314.0"/> <!-- Hofmatt-Bellpark -->
        <stop busStop="1485039419" duration="20" until="372.0"/> <!-- Zentrum Pilatus -->
        <stop busStop="598098664" duration="20" until="446.0"/> <!-- Kriens Busschleife -->
    </route>
    <route id="pt_trolleybus_1:0" edges="93752636 93752642 94602900 94602944 94602961#0 94602961#1 44129709#0 44129709#2 93720113 100873454#0 100873454#2 35857085#1 452510297 94522272#0 134989578#0 134989578#1 94545447#1 712687104#0 712687104#1 712687104#2 712687104#3 712687104#4 712687104#5 712687104#6 22384595#0 22384595#1 22384595#2 22384595#3 22384595#4 22384595#5 22384595#6 22384595#7 22384595#8 93720122#2 -330757768#19 -330757768#18 -330757768#17 -330757768#14 -330757768#13 -330757768#12 -330757768#11 -330757768#9 -330757768#8" >
        <stop busStop="598172362" duration="20" until="31.0"/> <!-- Luzern Bahnhof -->
        <stop busStop="1165748197" duration="20" until="135.0"/> <!-- Schwanenplatz -->
        <stop busStop="1483240184" duration="20" until="227.0"/> <!-- Luzernerhof -->
        <stop busStop="308240450" duration="20" until="323.0"/> <!-- Löwenplatz -->
        <stop busStop="7274196194" duration="20" until="404.0"/> <!-- Wesemlinrain -->
        <stop busStop="-7248262541" duration="20" until="482.0"/> <!-- Schlossberg -->
        <stop busStop="-7248262545" duration="20" until="549.0"/> <!-- Weggismatt -->
    </route>
    <route id="pt_bus_42:1" edges="39074639#0 39074639#1 43418079#0 43418079#1 445000444 445092733#0 445092733#1 134727279#0 134727279#1 134727279#2 134727279#3 134727279#7 134727279#8 98987549#2 98987549#0 19803068#0 19803068#2 19803068#3 19803068#4 19803068#5 19803068#6 19803068#7 -39074665#9 -39074665#8 -39074665#7 -39074665#6 -39074665#5 -39074665#4 -39074665#2 -39074665#1 -39074665#0" >
        <stop busStop="7276082761" duration="20" until="82.0"/> <!-- Frohburg -->
        <stop busStop="4420078769" duration="20" until="177.0"/> <!-- Staffeln Schulhaus -->
        <stop busStop="7184667177" duration="20" until="244.0"/> <!-- Eichenstrasse -->
        <stop busStop="-7184667178" duration="20" until="318.0"/> <!-- Waldstrasse -->
    </route>
    <route id="pt_bus_16:1" edges="46822948 -30111222 -553458837 -276043557 -553458838 -30765082#2 -30765082#1 -30765082#0 28037297#0 28037297#2 28520917#0 28520917#1 37339241#0 37339241#1 28154804#0 28154804#1 28154804#2 -37339240#2 -37339240#1 -37339240#0 -751559970#12 -751559970#11 -751559970#10 -751559970#9 -751559970#8 -751559970#7 -751559970#6 -751559970#5 -751559970#4 -751559970#3 -751559970#2 -751559970#1 -751559970#0" >
        <stop busStop="598101627" duration="20" until="34.0"/> <!-- Kriens Busschleife -->
        <stop busStop="307858465" duration="20" until="118.0"/> <!-- Zentrum Pilatus -->
        <stop busStop="331818267" duration="20" until="180.0"/> <!-- Krauerhalle -->
        <stop busStop="-307120029" duration="20" until="238.0"/> <!-- Johanneskirche -->
        <stop busStop="-8072044950" duration="20" until="289.0"/> <!-- Zunacher -->
        <stop busStop="-8072044951" duration="20" until="352.0"/> <!-- Sportweg -->
        <stop busStop="-8072044953" duration="20" until="402.0"/> <!-- Lauerzweg -->
    </route>
    <route id="pt_bus_20:0" edges="41984586#1 41984586#2 41984586#3 41984586#4 41984586#5 41984586#6 41984586#7 97664093#3 97664093#0 164358770#0 164358770#1 164358770#2 164358770#3 164358770#4 164358770#5 164358770#6 164358770#7 164358769#0 164358769#1 164358769#3 -986336000 -144174929 -397705254#3 -397705254#2 -397705254#0 -51080602 -10426673 -386850954#2 -8428661#7 -8428661#5 -8428661#4 -8428661#1 -8428661#0 -397705250 -397705249 -397705245#3 -305482866#0 -96652797#2 -39447057#1 -120517467#1 -206490679 -184818318#1 128956080#1 98779324#0 98779324#1 179839874#0 146343278 74320153 53620033 35964672#1 10432693 35964673 94721113#0 94721113#1 94721113#2 94602911 94602990 94603047 93752629 94603084 94602935" >
        <stop busStop="8072044932" duration="20" until="41.0"/> <!-- Zihlmattweg -->
        <stop busStop="7272504536" duration="20" until="110.0"/> <!-- Allmend/Messe -->
        <stop busStop="598172341" duration="20" until="194.0"/> <!-- Eichhof -->
        <stop busStop="-598172343" duration="20" until="277.0"/> <!-- Paulusplatz -->
        <stop busStop="-260019054" duration="20" until="406.0"/> <!-- Pilatusplatz -->
        <stop busStop="-27329497" duration="20" until="456.0"/> <!-- Kantonalbank -->
        <stop busStop="1098666350" duration="20" until="639.0"/> <!-- Luzern Bahnhof -->
    </route>
    <route id="pt_bus_43:1" edges="-39074665#0 -769694982#0 -866204098#1 -866204098#0 -19803072 -866204097 -19803068#7 -19803068#6 -19803068#5 -19803068#4 -19803068#3 -19803068#2 -19803068#0 98987549#1 -134727279#8 -134727279#7 -134727279#3 -134727279#2 -134727279#1 -134727279#0 -445092733#1 -445092733#0 -445000444 -43418079#1 -43418079#0 -39074639#1 -39074639#0" >
        <stop busStop="-7184667178" duration="20" until="60.0"/> <!-- Waldstrasse -->
        <stop busStop="-7184667176" duration="20" until="138.0"/> <!-- Obermättlistrasse -->
        <stop busStop="-4420078769" duration="20" until="207.0"/> <!-- Staffeln Schulhaus -->
        <stop busStop="-7276082761" duration="20" until="297.0"/> <!-- Frohburg -->
    </route>
    <route id="pt_train_IR_27:1" edges="118745118" >
        <stop busStop="2051794005" duration="20" until="81.0"/> <!-- Luzern -->
    </route>
    <route id="pt_bus_52:5" edges="93752648 94602944 94602961#0 94602961#1 94728338 94721111#0 94721111#2 144968178 53620033 44129718 31264893 444584961#0 184818318#0 206490679 120517467#0 39447057#0 96652797#0 305482866#0 134989584#0 134989584#2 134989584#3 121516959#1 121516958#0 121516958#1 121516958#2 452295145 452295147#0 -95094998#0 -32787503#3 -32787503#1 -32787503#0 10968767#0 10968767#2 10968767#3 10968767#4 10968767#5 10968767#6 10968767#7 10968767#8 10968767#9 201725670#0 32846421#1 74320151 298490058 24544092 10306683 42264604 184858278 421289859 298490969" >
        <stop busStop="598172363" duration="20" until="38.0"/> <!-- Luzern Bahnhof -->
        <stop busStop="1483240186" duration="20" until="255.0"/> <!-- Pilatusplatz -->
        <stop busStop="311606382" duration="20" until="383.0"/> <!-- Kasernenplatz -->
    </route>
    <route id="pt_bus_20:3" edges="41984586#1 41984586#2 41984586#3 41984586#4 41984586#5 41984586#6 41984586#7 97664093#3 97664093#0 164358770#0 164358770#1 164358770#2 164358770#3 164358770#4 164358770#5 164358770#6 164358770#7 164358769#0 164358769#1 164358769#3 -986336000 -144174929 -397705254#3 -397705254#2 -397705254#0 -51080602 -10426673 -386850954#2 -8428661#7 -8428661#5 -8428661#4 -8428661#1 -8428661#0 -397705250 -397705249 -397705245#3 -305482866#0 -96652797#2 -39447057#1 -120517467#1 -206490679 -184818318#1 128956080#1 98779324#0 98779324#1 179839874#0 146343278 74320153 53620033 35964672#1 10432693 35964673 94721113#0 94721113#1 94721113#2 94602911 94602990 94603047 93752629 94603084 94602935" >
        <stop busStop="8072044932" duration="20" until="58.0"/> <!-- Zihlmattweg -->
        <stop busStop="7272504536" duration="20" until="126.0"/> <!-- Allmend/Messe -->
        <stop busStop="598172341" duration="20" until="212.0"/> <!-- Eichhof -->
        <stop busStop="-598172343" duration="20" until="294.0"/> <!-- Paulusplatz -->
        <stop busStop="-260019054" duration="20" until="424.0"/> <!-- Pilatusplatz -->
        <stop busStop="-27329497" duration="20" until="472.0"/> <!-- Kantonalbank -->
        <stop busStop="1098666350" duration="20" until="653.0"/> <!-- Luzern Bahnhof -->
    </route>
    <route id="pt_bus_15:1" edges="-30373813#2 -30373813#1 -30373813#0 -28115065#4 -28115065#3 -28115065#2 -28115065#1 -28115065#0 28154804#2 -37339240#2 -37339240#1 -37339240#0 -28069843#5 -28069843#4 -28069843#3 -28069843#2 -28069843#0 30505619#0 30505619#1 30505619#2 30505619#3 276049497#0 276049497#1 276049497#4 867036815#1 30765082#1 30765082#2 553458838 276043557 553458837 30111222 434705280 94711861#0 94711861#1 779241617 46822949" >
        <stop busStop="-1227248791" duration="20" until="73.0"/> <!-- Roggernhalde -->
        <stop busStop="-8072070859" duration="20" until="130.0"/> <!-- Himmelrichstrasse -->
        <stop busStop="-1621275615" duration="20" until="186.0"/> <!-- Friedhofstrasse -->
        <stop busStop="-336706429" duration="20" until="298.0"/> <!-- Grossfeldstrasse -->
        <stop busStop="1406220211" duration="20" until="362.0"/> <!-- Hofmatt-Bellpark -->
        <stop busStop="1485039419" duration="20" until="434.0"/> <!-- Zentrum Pilatus -->
        <stop busStop="598098664" duration="20" until="512.0"/> <!-- Kriens Busschleife -->
    </route>
    <route id="pt_bus_43:0" edges="39074639#0 39074639#1 43418079#0 43418079#1 445000444 445092733#0 445092733#1 134727279#0 134727279#1 134727279#2 134727279#3 134727279#7 134727279#8 98987549#2 98987549#0 19803068#0 19803068#2 19803068#3 19803068#4 19803068#5 19803068#6 19803068#7 -39074665#9 -39074665#8 -39074665#7 -39074665#6 -39074665#5 -39074665#4 -39074665#2 -39074665#1 -39074665#0" >
        <stop busStop="7276082761" duration="20" until="102.0"/> <!-- Frohburg -->
        <stop busStop="4420078769" duration="20" until="204.0"/> <!-- Staffeln Schulhaus -->
        <stop busStop="7184667177" duration="20" until="272.0"/> <!-- Eichenstrasse -->
        <stop busStop="-7184667178" duration="20" until="347.0"/> <!-- Waldstrasse -->
    </route>
    <route id="pt_bus_52:4" edges="394000861 39480415 42265223#1 42265219 184750474 184858279 10274373 24544096 24544097 24544094 24544099 542954995 201725697 420302482#0 43418077#0 43418077#2 43418077#3 32787503#0 32787503#1 32787503#2 95094998#0 134989618 157304012#0 157304012#3 201725669#0 201725669#1 201725669#2 -305482866#0 -96652797#2 -39447057#1 -120517467#1 -206490679 -184818318#1 128956080#1 98779324#0 98779324#1 179839874#0 146343278 74320153 53620033 35964672#1 10432693 35964673 94721113#0 94721113#1 94721113#2 94602911 94602990 94603047 93752629 94603084 93752648" >
        <stop busStop="97765117" duration="20" until="241.0"/> <!-- Kasernenplatz -->
        <stop busStop="-260019054" duration="20" until="436.0"/> <!-- Pilatusplatz -->
        <stop busStop="598172363" duration="20" until="635.0"/> <!-- Luzern Bahnhof -->
    </route>
    <route id="pt_bus_26:0" edges="-1016970349 -39401063#4 -39401063#3 -39401063#2 -39401063#1 -39401063#0 -37297216#20 -37297216#19 -37297216#18 -37297216#16 -37297216#14 -37297216#13 -37297216#11 -37297216#10 -37297216#9 -37297216#8 -37297216#7 -37297216#5 -37297216#4 -37297216#3 -37297216#2 -37297216#1 -37297216#0 -638331076 -638331073 976088819#1 976088819#2 976088819#3 35286562#0 35286562#1 976124574 976088823#0 976088823#1 976088823#2 976088823#4 976088823#5 976088823#6 976088823#7 976088823#8 976088823#9 976088823#10" >
        <stop busStop="-1103214919" duration="20" until="34.0"/> <!-- Brüelstrasse -->