<?xml version="1.0" encoding="UTF-8"?>

<!-- generated on 2022-03-05 21:39:53 by Eclipse SUMO netconvert Version 1.12.0
<configuration xmlns:xsi="http://www.w3.org/2001/XMLSchema-instance" xsi:noNamespaceSchemaLocation="http://sumo.dlr.de/xsd/netconvertConfiguration.xsd">

    <input>
        <type-files value="C:\Program%20Files%20(x86)\Eclipse\Sumo\data\typemap\osmNetconvert.typ.xml"/>
        <osm-files value="osm_bbox.osm.xml"/>
    </input>

    <output>
        <output-file value="osm.net.xml"/>
        <output.street-names value="true"/>
        <output.original-names value="true"/>
        <ptstop-output value="osm_stops.add.xml"/>
        <ptline-output value="osm_ptlines.xml"/>
    </output>

    <projection>
        <proj.utm value="true"/>
    </projection>

    <processing>
        <geometry.remove value="true"/>
        <roundabouts.guess value="true"/>
    </processing>

    <tls_building>
        <tls.discard-simple value="true"/>
        <tls.join value="true"/>
        <tls.guess-signals value="true"/>
        <tls.default-type value="actuated"/>
    </tls_building>

    <ramp_guessing>
        <ramps.guess value="true"/>
    </ramp_guessing>

    <junctions>
        <junctions.join value="true"/>
        <junctions.corner-detail value="5"/>
    </junctions>

    <railway>
        <railway.topology.repair value="true"/>
        <railway.topology.repair.stop-turn value="true"/>
    </railway>

    <report>
        <verbose value="true"/>
        <aggregate-warnings value="5"/>
    </report>

</configuration>
-->

<additional xmlns:xsi="http://www.w3.org/2001/XMLSchema-instance" xsi:noNamespaceSchemaLocation="http://sumo.dlr.de/xsd/additional_file.xsd">
    <busStop id="-1002463599" name="Luzern" lane="-834322745_0" startPos="0.00" endPos="104.10" friendlyPos="true">
        <access lane="377963627_0" pos="0.00" length="18.79" friendlyPos="1"/>
        <access lane="377966225_0" pos="2.05" length="11.64" friendlyPos="1"/>
        <access lane="379387005_0" pos="6.37" length="10.61" friendlyPos="1"/>
        <access lane="44129708#2_0" pos="8.99" length="13.74" friendlyPos="1"/>
        <access lane="44129708#3_0" pos="0.00" length="19.08" friendlyPos="1"/>
    </busStop>
    <busStop id="-1002465031" name="Luzern" lane="-834322752_0" startPos="264.80" endPos="369.60" friendlyPos="true">
        <access lane="377963625#0_0" pos="0.00" length="20.27" friendlyPos="1"/>
        <access lane="377966223_0" pos="129.15" length="14.40" friendlyPos="1"/>
        <access lane="377966226_0" pos="2.66" length="10.69" friendlyPos="1"/>
        <access lane="44129708#5_0" pos="13.77" length="18.86" friendlyPos="1"/>
        <access lane="44129708#6_0" pos="2.31" length="15.14" friendlyPos="1"/>
    </busStop>
    <busStop id="-1002465533" name="Luzern" lane="-834322751_0" startPos="0.00" endPos="104.68" friendlyPos="true">
        <access lane="377966224_0" pos="2.59" length="19.22" friendlyPos="1"/>
        <access lane="377966226_0" pos="2.66" length="12.24" friendlyPos="1"/>
        <access lane="379387004_0" pos="6.54" length="12.89" friendlyPos="1"/>
        <access lane="44129708#5_0" pos="9.48" length="14.92" friendlyPos="1"/>
        <access lane="44129708#6_0" pos="0.00" length="20.60" friendlyPos="1"/>
    </busStop>
    <busStop id="-1002465535" name="Luzern" lane="-834322749_0" startPos="0.00" endPos="104.49" friendlyPos="true">
        <access lane="23088146#0_0" pos="0.00" length="18.36" friendlyPos="1"/>
        <access lane="23088146#1_0" pos="0.00" length="23.35" friendlyPos="1"/>
        <access lane="377966224_0" pos="2.59" length="11.74" friendlyPos="1"/>
        <access lane="44129708#4_0" pos="7.78" length="14.59" friendlyPos="1"/>
        <access lane="44129708#5_0" pos="0.00" length="19.61" friendlyPos="1"/>
    </busStop>
    <busStop id="-1002466274" name="Luzern" lane="-834322747_0" startPos="0.00" endPos="104.30" friendlyPos="true">
        <access lane="23088146#0_0" pos="0.00" length="12.55" friendlyPos="1"/>
        <access lane="377963614#0_0" pos="0.00" length="19.48" friendlyPos="1"/>
        <access lane="377966225_0" pos="2.05" length="18.87" friendlyPos="1"/>
        <access lane="44129708#3_0" pos="9.05" length="14.13" friendlyPos="1"/>
        <access lane="44129708#4_0" pos="0.00" length="21.07" friendlyPos="1"/>
    </busStop>
    <busStop id="-1057155639" name="Haslihorn" lane="-458346548#6_0" startPos="29.56" endPos="44.56" friendlyPos="true" lines="21"/>
    <busStop id="-1098133696" name="Dietschiberg" lane="-80446532#2_0" startPos="0.00" endPos="11.45" friendlyPos="true" lines="6 8"/>
    <busStop id="-1098191304" name="Mönchweg" lane="-37389755#5_0" startPos="0.00" endPos="8.88" friendlyPos="true" lines="4"/>
    <busStop id="-1099807926" name="Kreuzstutz" lane="-190192157#9_0" startPos="7.25" endPos="22.25" friendlyPos="true" lines="30 12"/>
    <busStop id="-1099877676" name="Grenzhof" lane="-190192157#0_0" startPos="27.60" endPos="42.60" friendlyPos="true" lines="30"/>
    <busStop id="-1099877741" name="Kanonenstrasse" lane="-190192157#3_0" startPos="3.27" endPos="18.27" friendlyPos="true" lines="30 12"/>
    <busStop id="-1103214919" name="Brüelstrasse" lane="-1016970349_0" startPos="0.00" endPos="14.35" friendlyPos="true" lines="26"/>
    <busStop id="-1132623664" name="Senti" lane="-28037730#0_0" startPos="0.00" endPos="11.50" friendlyPos="true" lines="15"/>
    <busStop id="-1132624749" name="St. Niklausengasse" lane="-276043569#0_0" startPos="53.91" endPos="68.91" friendlyPos="true" lines="15"/>
    <busStop id="-1133988364" name="Staldenhof" lane="-498890219#1_0" startPos="3.98" endPos="18.98" friendlyPos="true" lines="41"/>
    <busStop id="-1227248791" name="Roggernhalde" lane="-30373813#2_0" startPos="436.21" endPos="451.21" friendlyPos="true" lines="15"/>
    <busStop id="-1356968579" name="Schlossberg" lane="-93720122#2_0" startPos="41.98" endPos="56.98" friendlyPos="true" lines="1 19"/>
    <busStop id="-1398732992" name="Luzern Verkehrshaus" lane="-103893340_0" startPos="313.92" endPos="513.92" friendlyPos="true">
        <access lane="142973098_0" pos="174.03" length="45.39" friendlyPos="1"/>
        <access lane="27602296#11_0" pos="35.02" length="75.61" friendlyPos="1"/>
        <access lane="283174676#2_0" pos="178.79" length="37.91" friendlyPos="1"/>
        <access lane="283174677#2_0" pos="80.37" length="23.70" friendlyPos="1"/>
        <access lane="578233921#2_0" pos="37.33" length="79.13" friendlyPos="1"/>
    </busStop>
    <busStop id="-1402361684" name="Pulvermühle" lane="-30111223#2_0" startPos="43.91" endPos="58.91" friendlyPos="true" lines="15 1"/>
    <busStop id="-1402361697" name="Stampfeli" lane="-276061431_0" startPos="41.07" endPos="51.52" friendlyPos="true" lines="71 1"/>
    <busStop id="-1402361703" name="Feldmühle" lane="-24668591#8_0" startPos="0.00" endPos="14.79" friendlyPos="true" lines="71 1"/>
    <busStop id="-1402382117" name="Kriens Busschleife" lane="-144379387#2_0" startPos="6.99" endPos="21.99" friendlyPos="true" lines="71 1"/>
    <busStop id="-1402433076" name="Schachenstrasse" lane="-818077657#0_0" startPos="0.00" endPos="7.50" friendlyPos="true" lines="1 5"/>
    <busStop id="-1402433088" name="Hofmatt-Bellpark" lane="-30505619#0_0" startPos="10.88" endPos="25.88" friendlyPos="true" lines="1 5"/>
    <busStop id="-1480899669" name="Ruopigen Zentrum" lane="-134727280#0_0" startPos="12.87" endPos="27.87" friendlyPos="true" lines="40"/>
    <busStop id="-1483240180" name="Dreilinden" lane="-134989549#1_0" startPos="50.73" endPos="64.72" friendlyPos="true" lines="7"/>
    <busStop id="-1483240181" name="Kapuzinerweg" lane="-143232900#0_0" startPos="10.32" endPos="25.32" friendlyPos="true" lines="14 7"/>
    <busStop id="-1483240182" name="Kloster" lane="-134989549#9_0" startPos="25.11" endPos="40.11" friendlyPos="true" lines="7"/>
    <busStop id="-1483240187" name="Wesemlinrain" lane="-22384595#3_0" startPos="14.28" endPos="25.65" friendlyPos="true" lines="1 19"/>
    <busStop id="-1485039454" name="Bodenhofterrasse" lane="-704947941#0_0" startPos="0.00" endPos="9.89" friendlyPos="true" lines="7"/>
    <busStop id="-1485039476" name="Gartenheim" lane="-135160800_0" startPos="29.22" endPos="44.22" friendlyPos="true" lines="7"/>
    <busStop id="-1485039481" name="Geissenstein" lane="-135207203#4_0" startPos="5.10" endPos="14.72" friendlyPos="true" lines="7"/>
    <busStop id="-1485039517" name="Maihofmatte-Rotsee" lane="-330757768#5_0" startPos="76.88" endPos="91.88" friendlyPos="true" lines="30 1"/>
    <busStop id="-1485039535" name="Morgenweg" lane="-135207223#1_0" startPos="20.90" endPos="35.90" friendlyPos="true" lines="7"/>
    <busStop id="-1485039548" name="Rodtegg" lane="-89387843#2_0" startPos="34.68" endPos="49.68" friendlyPos="true" lines="7"/>
    <busStop id="-1485039627" name="Zwyssigplatz" lane="-135207223#2_0" startPos="13.88" endPos="28.88" friendlyPos="true" lines="7"/>
    <busStop id="-1499118015" name="Schlossberg" lane="-136641146#3_0" startPos="26.35" endPos="37.16" friendlyPos="true" lines="30 19"/>
    <busStop id="-1621275615" name="Friedhofstrasse" lane="-28115065#3_0" startPos="8.92" endPos="23.92" friendlyPos="true" lines="15"/>
    <busStop id="-1778558480" name="Eggen" lane="-37297185#1_0" startPos="52.59" endPos="67.59" friendlyPos="true" lines="6"/>
    <busStop id="-2051794005" name="Luzern" lane="-834322750_0" startPos="0.00" endPos="7.50" friendlyPos="true">
        <access lane="23088146#1_0" pos="0.00" length="5.06" friendlyPos="1"/>
        <access lane="377963614#0_0" pos="0.24" length="3.45" friendlyPos="1"/>
        <access lane="377963623#1_0" pos="0.20" length="9.59" friendlyPos="1"/>
        <access lane="44129708#3_0" pos="12.28" length="7.94" friendlyPos="1"/>
        <access lane="44129708#4_0" pos="0.00" length="9.42" friendlyPos="1"/>
    </busStop>
    <busStop id="-2051794005@7782644" name="Luzern" lane="-194675923_0" startPos="376.97" endPos="384.47" friendlyPos="true">
        <access lane="23088146#1_0" pos="0.00" length="5.06" friendlyPos="1"/>
        <access lane="377963614#0_0" pos="0.24" length="3.45" friendlyPos="1"/>
        <access lane="377963623#1_0" pos="0.20" length="9.59" friendlyPos="1"/>
        <access lane="44129708#3_0" pos="12.28" length="7.94" friendlyPos="1"/>
        <access lane="44129708#4_0" pos="0.00" length="9.42" friendlyPos="1"/>
    </busStop>
    <busStop id="-206357913" name="Giseli" lane="-94522273#6_0" startPos="0.00" endPos="14.61" friendlyPos="true" lines="6 25"/>
    <busStop id="-206372726" name="Michaelshof" lane="-19803517#8_0" startPos="37.69" endPos="52.69" friendlyPos="true" lines="30 12"/>
    <busStop id="-206372754" name="Kantonsspital" lane="-22386331#0_0" startPos="43.28" endPos="58.28" friendlyPos="true" lines="30 9 19"/>
    <busStop id="-206372908" name="Schädrütihalde" lane="-37297216#3_0" startPos="21.32" endPos="36.32" friendlyPos="true" lines="26"/>
    <busStop id="-206381260" name="Luzern" lane="-194675923_0" startPos="280.04" endPos="384.47" friendlyPos="true">
        <access lane="23088146#0_0" pos="0.00" length="11.71" friendlyPos="1"/>
        <access lane="23088146#1_0" pos="0.00" length="19.66" friendlyPos="1"/>
        <access lane="377966224_0" pos="2.59" length="18.37" friendlyPos="1"/>
        <access lane="44129708#3_0" pos="12.28" length="20.73" friendlyPos="1"/>
        <access lane="44129708#4_0" pos="2.72" length="14.43" friendlyPos="1"/>
    </busStop>
    <busStop id="-260019054" name="Pilatusplatz" lane="-305482866#0_0" startPos="42.71" endPos="57.71" friendlyPos="true" lines="2 20 9 10 52 71 72 1 12 61 11 50"/>
    <busStop id="-260019068" name="Alpenstrasse" lane="-387290889#2_0" startPos="72.19" endPos="87.19" friendlyPos="true" lines="71 1 5"/>
    <busStop id="-260019117" name="Nidfeld" lane="-28514156#0_0" startPos="96.98" endPos="111.98" friendlyPos="true" lines="14"/>
    <busStop id="-268126927" name="Kriens Busschleife" lane="-434705278_0" startPos="0.00" endPos="6.47" friendlyPos="true" lines="1 71"/>
    <busStop id="-27329497" name="Kantonalbank" lane="-39447057#1_0" startPos="36.15" endPos="51.15" friendlyPos="true" lines="2 20 9 10 1 12 11"/>
    <busStop id="-282157840" name="Littau Dorf" lane="-39074716#0_0" startPos="6.37" endPos="21.37" friendlyPos="true" lines="30 40"/>
    <busStop id="-283223448" name="Littau" lane="-196661156#1_0" startPos="54.98" endPos="193.47" friendlyPos="true">
        <access lane="-39074756#0_0" pos="94.86" length="47.41" friendlyPos="1"/>
        <access lane="-97686493_0" pos="21.15" length="54.97" friendlyPos="1"/>
        <access lane="39074756#0_0" pos="34.10" length="42.61" friendlyPos="1"/>
        <access lane="681039319_0" pos="0.00" length="55.82" friendlyPos="1"/>
        <access lane="681039320#1_0" pos="2.13" length="54.60" friendlyPos="1"/>
    </busStop>
    <busStop id="-300652646" name="Casino-Palace" lane="-364075852#4_0" startPos="26.64" endPos="41.64" friendlyPos="true" lines="6 8 24"/>
    <busStop id="-303097162" name="Schlösslihalde" lane="-27602527#8_0" startPos="26.02" endPos="41.02" friendlyPos="true" lines="14"/>
    <busStop id="-307120029" name="Johanneskirche" lane="-751559970#11_0" startPos="0.00" endPos="8.92" friendlyPos="true" lines="21 16"/>
    <busStop id="-308898923" name="Steinhofrain" lane="-220487398#0_0" startPos="100.42" endPos="115.42" friendlyPos="true" lines="10 11"/>
    <busStop id="-309136781" name="Dattenbergrain" lane="-220753097#1_0" startPos="65.21" endPos="80.21" friendlyPos="true" lines="15"/>
    <busStop id="-310005930" name="Pilatus-Bahnen" lane="-94711857_0" startPos="0.00" endPos="7.50" friendlyPos="true" lines="15"/>
    <busStop id="-311606391" name="Rönnimoosrain" lane="-19803517#15_0" startPos="21.92" endPos="36.92" friendlyPos="true" lines="30 12"/>
    <busStop id="-311606396" name="Längweiher" lane="-19803517#11_0" startPos="25.99" endPos="40.99" friendlyPos="true" lines="30 12"/>
    <busStop id="-317381548" name="Obere Dattenbergstrasse" lane="-106697040#0_0" startPos="1.62" endPos="16.62" friendlyPos="true" lines="15"/>
    <busStop id="-331805631" name="Eichenspes" lane="-94711858#6_0" startPos="0.00" endPos="7.70" friendlyPos="true" lines="15"/>
    <busStop id="-331805632" name="Zumhofstrasse" lane="-94711858#0_0" startPos="94.38" endPos="109.38" friendlyPos="true" lines="15"/>
    <busStop id="-331805633" name="Zumhof" lane="-37337875#0_0" startPos="27.04" endPos="42.04" friendlyPos="true" lines="15"/>
    <busStop id="-333555694" name="Luzern" lane="-834322746_0" startPos="0.00" endPos="104.24" friendlyPos="true">
        <access lane="23088146#0_0" pos="0.00" length="19.01" friendlyPos="1"/>
        <access lane="377963614#0_0" pos="0.00" length="22.94" friendlyPos="1"/>
        <access lane="377966225_0" pos="2.05" length="12.44" friendlyPos="1"/>
        <access lane="44129708#2_0" pos="12.82" length="19.70" friendlyPos="1"/>
        <access lane="44129708#3_0" pos="4.22" length="14.04" friendlyPos="1"/>
    </busStop>
    <busStop id="-333645308" name="Luzern" lane="-834322750_0" startPos="0.00" endPos="104.62" friendlyPos="true">
        <access lane="377966224_0" pos="2.59" length="12.15" friendlyPos="1"/>
        <access lane="377966226_0" pos="2.66" length="19.28" friendlyPos="1"/>
        <access lane="379387004_0" pos="6.54" length="11.47" friendlyPos="1"/>
        <access lane="44129708#4_0" pos="11.53" length="20.21" friendlyPos="1"/>
        <access lane="44129708#5_0" pos="4.15" length="14.85" friendlyPos="1"/>
    </busStop>
    <busStop id="-336706429" name="Grossfeldstrasse" lane="-28069843#4_0" startPos="25.25" endPos="40.25" friendlyPos="true" lines="16 15"/>
    <busStop id="-357455545" name="Geissmatthöhe" lane="-31909899_0" startPos="0.00" endPos="7.50" friendlyPos="true" lines="9"/>
    <busStop id="-357471926" name="Mühlemattstrasse" lane="-866030037#2_0" startPos="39.00" endPos="54.00" friendlyPos="true" lines="9"/>
    <busStop id="-364790072" name="Friedbergstrasse" lane="-135207193#0_0" startPos="17.64" endPos="32.64" friendlyPos="true" lines="9"/>
    <busStop id="-369965693" name="Obere Weinhalde" lane="-32841506#10_0" startPos="0.00" endPos="7.50" friendlyPos="true" lines="15"/>
    <busStop id="-371753766" name="Reussport" lane="-436156037#0_0" startPos="0.00" endPos="11.02" friendlyPos="true" lines="19"/>
    <busStop id="-426860182" name="Grenzhof" lane="-19803517#20_0" startPos="0.00" endPos="7.50" friendlyPos="true" lines="12"/>
    <busStop id="-428732887" name="Sternmatt" lane="-104318805#4_0" startPos="1.48" endPos="16.48" friendlyPos="true" lines="7"/>
    <busStop id="-434635992" name="Oberseeburg" lane="-37297191#9_0" startPos="9.24" endPos="24.24" friendlyPos="true" lines="25"/>
    <busStop id="-434636245" name="Würzenbachmatte" lane="-37297207#2_0" startPos="32.78" endPos="47.78" friendlyPos="true" lines="8"/>
    <busStop id="-434636247" name="Würzenbachmatte" lane="-37297207#4_0" startPos="7.23" endPos="22.23" friendlyPos="true" lines="8"/>
    <busStop id="-435225257" name="Ehrendingen" lane="-94711849#1_0" startPos="30.00" endPos="45.00" friendlyPos="true" lines="15"/>
    <busStop id="-435225259" name="Gabeldingen" lane="-28146423_0" startPos="0.00" endPos="7.50" friendlyPos="true" lines="15"/>
    <busStop id="-435225260" name="Gabeldingen Schulhaus" lane="-221650296#1_0" startPos="21.46" endPos="36.46" friendlyPos="true" lines="15"/>
    <busStop id="-435225265" name="Bergstrasse" lane="-220753098_0" startPos="16.48" endPos="31.48" friendlyPos="true" lines="15"/>
    <busStop id="-435231930" name="Oberhusrain" lane="-37337876#1_0" startPos="24.59" endPos="37.24" friendlyPos="true" lines="15"/>
    <busStop id="-435231931" name="Oberhusweg" lane="-419301361_0" startPos="0.74" endPos="15.74" friendlyPos="true" lines="15"/>
    <busStop id="-435245567" name="Kirchbühl" lane="-106697016#1_0" startPos="6.83" endPos="21.83" friendlyPos="true" lines="15"/>
    <busStop id="-436601443" name="Hubelmatt" lane="-97670448_0" startPos="0.00" endPos="5.68" friendlyPos="true" lines="4"/>
    <busStop id="-4420078769" name="Staffeln Schulhaus" lane="-134727279#7_0" startPos="7.04" endPos="18.94" friendlyPos="true" lines="40 42 43"/>
    <busStop id="-4441508552" name="Schiff" lane="-373436809_0" startPos="2.55" endPos="17.55" friendlyPos="true" lines="5 2"/>
    <busStop id="-466485418" name="Matt" lane="-39074700#5_0" startPos="24.27" endPos="39.27" friendlyPos="true" lines="40"/>
    <busStop id="-466485605" name="Littau Bahnhof" lane="-97686493_0" startPos="23.58" endPos="38.58" friendlyPos="true" lines="30 40 41"/>
    <busStop id="-471106231" name="Stutz" lane="-880325777_0" startPos="12.22" endPos="27.22" friendlyPos="true" lines="21"/>
    <busStop id="-472459433" name="Bundesplatz" lane="-305482859#0_0" startPos="35.29" endPos="45.30" friendlyPos="true" lines="4 6 8 7"/>
    <busStop id="-4841439968" name="Seefeldstrasse" lane="-283174680#0_0" startPos="0.00" endPos="7.70" friendlyPos="true" lines="24"/>
    <busStop id="-506671368" name="Werkhofstrasse" lane="-305482877#6_0" startPos="10.49" endPos="25.49" friendlyPos="true" lines="21 6 8 7"/>
    <busStop id="-506672767" name="Weinbergli" lane="-785364818#4_0" startPos="0.14" endPos="15.14" friendlyPos="true" lines="6 8 7"/>
    <busStop id="-506673090" name="Eisfeldstrasse" lane="-705286365_0" startPos="35.96" endPos="50.96" friendlyPos="true" lines="21 6 8 7"/>
    <busStop id="-507051500" name="Wartegg" lane="-72738315#10_0" startPos="0.00" endPos="13.82" friendlyPos="true" lines="6 8"/>
    <busStop id="-507053070" name="Schönbühl" lane="-72738315#2_0" startPos="0.20" endPos="15.20" friendlyPos="true" lines="6 21 8"/>
    <busStop id="-598134662" name="Zentrum Pilatus" lane="-276049497#4_0" startPos="15.40" endPos="30.40" friendlyPos="true" lines="1 5"/>
    <busStop id="-598151967" name="Hammerschmiede" lane="-24668591#0_0" startPos="31.77" endPos="46.77" friendlyPos="true" lines="1"/>
    <busStop id="-598151976" name="Schappe-Center" lane="-30111223#4_0" startPos="59.05" endPos="74.05" friendlyPos="true" lines="15 1"/>
    <busStop id="-598161469" name="Kupferhammer" lane="-24668589_0" startPos="3.77" endPos="18.77" friendlyPos="true" lines="1 5"/>
    <busStop id="-598172341" name="Eichhof" lane="-164358769#3_0" startPos="29.85" endPos="44.85" friendlyPos="true" lines="20"/>
    <busStop id="-598172343" name="Paulusplatz" lane="-386850954#2_0" startPos="2.58" endPos="17.58" friendlyPos="true" lines="20 1 11 5"/>
    <busStop id="-598172346" name="Moosegg" lane="-8428661#1_0" startPos="11.87" endPos="26.87" friendlyPos="true" lines="1 11 5"/>
    <busStop id="-626367394" name="Seeburg-Schifflände" lane="-220331656_0" startPos="320.42" endPos="335.42" friendlyPos="true" lines="24"/>
    <busStop id="-626367834" name="Hotel Seeburg" lane="-220331655#4_0" startPos="18.99" endPos="33.99" friendlyPos="true" lines="24"/>
    <busStop id="-626495930" name="Schlössli" lane="-52345192#0_0" startPos="285.24" endPos="300.24" friendlyPos="true" lines="24"/>
    <busStop id="-6377336345" name="Littau" lane="-98221366#1_0" startPos="0.00" endPos="96.07" friendlyPos="true">
        <access lane="-97686493_0" pos="21.21" length="42.18" friendlyPos="1"/>
        <access lane="39074717_0" pos="41.32" length="46.98" friendlyPos="1"/>
        <access lane="39074718#1_0" pos="36.38" length="52.66" friendlyPos="1"/>
        <access lane="39074756#0_0" pos="33.87" length="55.39" friendlyPos="1"/>
        <access lane="681039319_0" pos="0.00" length="56.08" friendlyPos="1"/>
    </busStop>
    <busStop id="-7184667176" name="Obermättlistrasse" lane="-866204097_0" startPos="36.61" endPos="51.61" friendlyPos="true" lines="42 43"/>
    <busStop id="-7184667178" name="Waldstrasse" lane="-39074665#0_0" startPos="16.60" endPos="31.60" friendlyPos="true" lines="42 43"/>
    <busStop id="-7222804248" name="Luzern" lane="-834322753#0_0" startPos="231.80" endPos="336.65" friendlyPos="true">
        <access lane="377963625#0_0" pos="0.00" length="23.78" friendlyPos="1"/>
        <access lane="377966223_0" pos="129.03" length="7.29" friendlyPos="1"/>
        <access lane="377966226_0" pos="2.66" length="16.64" friendlyPos="1"/>
        <access lane="44129708#6_0" pos="7.05" length="15.27" friendlyPos="1"/>
        <access lane="44129708#7_0" pos="0.00" length="18.78" friendlyPos="1"/>
    </busStop>
    <busStop id="-7248262541" name="Schlossberg" lane="-330757768#19_0" startPos="29.25" endPos="44.25" friendlyPos="true" lines="30 1"/>
    <busStop id="-7248262542" name="Gasshof" lane="-443045111#0_0" startPos="46.98" endPos="61.98" friendlyPos="true" lines="12"/>
    <busStop id="-7248262543" name="Gasshof" lane="-101433110#1_0" startPos="4.56" endPos="19.56" friendlyPos="true" lines="30 40"/>
    <busStop id="-7248262545" name="Weggismatt" lane="-330757768#12_0" startPos="22.92" endPos="37.92" friendlyPos="true" lines="30 1"/>
    <busStop id="-7248262564" name="St. Karli" lane="-866030035#0_0" startPos="18.60" endPos="33.60" friendlyPos="true" lines="30 9 19"/>
    <busStop id="-7248262568" name="Blattenmoos" lane="-19803517#1_0" startPos="4.16" endPos="19.16" friendlyPos="true" lines="30"/>
    <busStop id="-7271600096" name="Rigiblick" lane="-976088823#10_0" startPos="452.36" endPos="467.36" friendlyPos="true" lines="73 26"/>
    <busStop id="-7271600097" name="Hochhüsliweid" lane="-638331076_0" startPos="9.60" endPos="24.60" friendlyPos="true" lines="26"/>
    <busStop id="-7272347245" name="Eichhof" lane="-32767128_0" startPos="20.98" endPos="35.98" friendlyPos="true" lines="5 71 14 11 1"/>
    <busStop id="-7274196219" name="Maihof" lane="-94711853_0" startPos="18.55" endPos="31.23" friendlyPos="true" lines="30 1"/>
    <busStop id="-7274331909" name="Kantonalbank" lane="-305482859#6_0" startPos="17.58" endPos="29.58" friendlyPos="true" lines="4 6 21 8 7"/>
    <busStop id="-7274331913" name="Brünigstrasse" lane="-305482861#2_0" startPos="52.57" endPos="66.68" friendlyPos="true" lines="4"/>
    <busStop id="-7274331934" name="Steghof" lane="-750730565_0" startPos="0.00" endPos="14.95" friendlyPos="true" lines="4"/>
    <busStop id="-7276028335" name="Gütsch" lane="-43418075#1_0" startPos="23.48" endPos="38.48" friendlyPos="true" lines="5 2 12"/>
    <busStop id="-7276028336" name="Fluhmühle" lane="-94721106#3_0" startPos="109.21" endPos="124.21" friendlyPos="true" lines="5 2"/>
    <busStop id="-7276082761" name="Frohburg" lane="-445092733#0_0" startPos="19.02" endPos="34.02" friendlyPos="true" lines="40 2 42 43 5"/>
    <busStop id="-7276082784" name="Kreuzstutz" lane="-43418075#7_0" startPos="11.85" endPos="26.85" friendlyPos="true" lines="5 2"/>
    <busStop id="-7279189827" name="Felsberg" lane="-134989549#4_0" startPos="2.85" endPos="17.85" friendlyPos="true" lines="7"/>
    <busStop id="-7279189829" name="Schulhaus Unterlöchli" lane="-72740989#0_0" startPos="15.04" endPos="30.04" friendlyPos="true" lines="7"/>
    <busStop id="-750648136" name="Sonnenbergstrasse" lane="-97804890#0_0" startPos="110.16" endPos="125.16" friendlyPos="true" lines="11"/>
    <busStop id="-750648181" name="Steinhof" lane="-97804890#7_0" startPos="74.23" endPos="89.23" friendlyPos="true" lines="11"/>
    <busStop id="-758982143" name="Oberseeburghöhe" lane="-37297191#4_0" startPos="52.98" endPos="67.98" friendlyPos="true" lines="25"/>
    <busStop id="-758982155" name="Eggen" lane="-37297192#1_0" startPos="33.57" endPos="48.57" friendlyPos="true" lines="6 25"/>
    <busStop id="-758982163" name="Büttenen" lane="-37297185#2_0" startPos="6.19" endPos="21.19" friendlyPos="true" lines="6"/>
    <busStop id="-7908898589" name="Luzern" lane="-834322754_0" startPos="0.00" endPos="113.36" friendlyPos="true">
        <access lane="-30808995#5_0" pos="2.48" length="28.47" friendlyPos="1"/>
        <access lane="118733795#1_0" pos="7.09" length="22.03" friendlyPos="1"/>
        <access lane="170990449#1_0" pos="12.84" length="34.37" friendlyPos="1"/>
        <access lane="30808995#5_0" pos="24.50" length="23.67" friendlyPos="1"/>
        <access lane="30808995#6_0" pos="0.00" length="31.40" friendlyPos="1"/>
    </busStop>
    <busStop id="-7908898590" name="Luzern" lane="-834322755_0" startPos="134.22" endPos="247.50" friendlyPos="true">
        <access lane="-30808995#5_0" pos="2.17" length="22.95" friendlyPos="1"/>
        <access lane="-30808995#6_0" pos="6.46" length="30.53" friendlyPos="1"/>
        <access lane="118733795#1_0" pos="7.09" length="24.50" friendlyPos="1"/>
        <access lane="30808995#5_0" pos="24.81" length="18.15" friendlyPos="1"/>
        <access lane="30808995#6_0" pos="0.00" length="27.12" friendlyPos="1"/>
    </busStop>
    <busStop id="-8072044950" name="Zunacher" lane="-751559970#8_0" startPos="3.12" endPos="18.12" friendlyPos="true" lines="21 16"/>
    <busStop id="-8072044951" name="Sportweg" lane="-751559970#1_0" startPos="10.93" endPos="25.93" friendlyPos="true" lines="21 16"/>
    <busStop id="-8072044953" name="Lauerzweg" lane="-751559970#0_0" startPos="63.51" endPos="78.51" friendlyPos="true" lines="21 16"/>
    <busStop id="-8072070859" name="Himmelrichstrasse" lane="-30373813#2_0" startPos="653.02" endPos="668.02" friendlyPos="true" lines="15"/>
    <busStop id="-8072070913" name="Hermitage" lane="-408451711#4_0" startPos="0.00" endPos="12.45" friendlyPos="true" lines="24"/>
    <busStop id="-8072075918" name="Rosenhalde" lane="-52345192#1_0" startPos="102.86" endPos="117.86" friendlyPos="true" lines="24"/>
    <busStop id="-8072075919" name="Balm" lane="-52345192#1_0" startPos="438.29" endPos="453.29" friendlyPos="true" lines="24"/>
    <busStop id="-845290448" name="Obergütschhalde" lane="-108358756#10_0" startPos="13.91" endPos="28.91" friendlyPos="true" lines="10"/>
    <busStop id="-866201047" name="Steinhofstrasse" lane="-28050002_0" startPos="21.47" endPos="36.47" friendlyPos="true" lines="10"/>
    <busStop id="-866201055" name="Untergütsch" lane="-49302771#3_0" startPos="8.12" endPos="23.12" friendlyPos="true" lines="10"/>
    <busStop id="-866201060" name="Panoramic View" lane="-49302769_0" startPos="94.34" endPos="109.34" friendlyPos="true" lines="10"/>
    <busStop id="-866201064" name="Berglistrasse" lane="-49303772#1_0" startPos="0.00" endPos="14.29" friendlyPos="true" lines="10"/>
    <busStop id="-9442245040" name="Obergütschrain" lane="-108358756#8_0" startPos="99.89" endPos="114.89" friendlyPos="true" lines="10"/>
    <busStop id="-9442245063" name="Obergütschstrasse" lane="-108358756#4_0" startPos="24.27" endPos="37.42" friendlyPos="true" lines="10"/>
    <busStop id="-984013966" name="Breitenlachen" lane="-24544106#2_0" startPos="31.07" endPos="46.07" friendlyPos="true" lines="4"/>
    <busStop id="-984014129" name="Hirtenhof" lane="-705286362_0" startPos="24.15" endPos="31.20" friendlyPos="true" lines="8"/>
    <busStop id="-984014276" name="Unter-Dattenberg" lane="-28123922#0_0" startPos="29.52" endPos="44.52" friendlyPos="true" lines="10 11"/>
    <busStop id="-984014635" name="Zumbachhof" lane="-705286364#3_0" startPos="16.40" endPos="31.40" friendlyPos="true" lines="8"/>
    <busStop id="-984023516" name="Klinik St. Anna" lane="-27582119#1_0" startPos="24.24" endPos="34.67" friendlyPos="true" lines="14"/>
    <busStop id="-984023532" name="Haldensteig" lane="-364075852#2_0" startPos="15.98" endPos="28.49" friendlyPos="true" lines="73 6 8"/>
    <busStop id="-984023828" name="Gärtnerstrasse" lane="-27603102#5_0" startPos="3.50" endPos="18.50" friendlyPos="true" lines="14"/>
    <busStop id="-984024066" name="Urnerhof" lane="-887914950#1_0" startPos="10.35" endPos="25.35" friendlyPos="true" lines="30 19"/>
    <busStop id="-984024077" name="Europe" lane="-364075852#11_0" startPos="12.92" endPos="27.92" friendlyPos="true" lines="6 8"/>