<?xml version="1.0" encoding="UTF-8"?>
<!-- generated on 2022-03-05 21:40:03.348058 by $Id: ptlines2flows.py v1_3_1+0313-ccb31df3eb jakob.erdmann@dlr.de 2019-09-02 13:26:32 +0200 $ v1_12_0+0000-800cb422fa4
  options: 
-->
<routes xmlns:xsi="http://www.w3.org/2001/XMLSchema-instance" xsi:noNamespaceSchemaLocation="http://sumo.dlr.de/xsd/routes_file.xsd">
    <vType id="pt_bus" vClass="bus" speedFactor="0.95"/>
    <vType id="pt_tram" vClass="tram" speedFactor="1.0"/>
    <vType id="pt_train" vClass="rail"/>
    <vType id="pt_subway" vClass="rail_urban"/>
    <vType id="pt_light_rail" vClass="rail_urban"/>
    <vType id="pt_monorail" vClass="rail"/>
    <vType id="pt_trolleybus" vClass="bus" speedFactor="0.95"/>
    <vType id="pt_minibus" vClass="bus" speedFactor="0.95"/>
    <vType id="pt_share_taxi" vClass="taxi" speedFactor="0.95"/>
    <vType id="pt_aerialway" vClass="bus"/>
    <vType id="pt_ferry" vClass="ship"/>
    <trip id="0_bus_N33:0" type="pt_bus" depart="0" departLane="best" from="39480378" to="29730545#1">
        <stop busStop="7005106863" duration="30"/>
    </trip>
    <trip id="1_bus_N33:1" type="pt_bus" depart="3" departLane="best" from="29730545#1" to="298490969">
        <stop busStop="7005106863" duration="30"/>
    </trip>
    <trip id="2_bus_30:0" type="pt_bus" depart="6" departLane="best" from="-97686493" to="-72735197#0">
        <stop busStop="-466485605" duration="30"/>
        <stop busStop="282157840" duration="30"/>
        <stop busStop="7248262542" duration="30"/>
        <stop busStop="271429291" duration="30"/>
        <stop busStop="984024105" duration="30"/>
        <stop busStop="311606402" duration="30"/>
        <stop busStop="206372728" duration="30"/>
        <stop busStop="206372731" duration="30"/>
        <stop busStop="426860182" duration="30"/>
        <stop busStop="1099877714" duration="30"/>
        <stop busStop="1099807926" duration="30"/>
        <stop busStop="984024323" duration="30"/>
        <stop busStop="1096064551" duration="30"/>
        <stop busStop="984024066" duration="30"/>
        <stop busStop="-984024117" duration="30"/>
        <stop busStop="-7248262541" duration="30"/>
        <stop busStop="-7248262545" duration="30"/>
        <stop busStop="-1485039517" duration="30"/>
        <stop busStop="-7274196219" duration="30"/>
    </trip>
    <trip id="3_bus_1524:0" type="pt_bus" depart="11" departLane="best" from="394000861" to="298352756">
        <stop busStop="7005106863" duration="30"/>
    </trip>
    <trip id="4_bus_1524:1" type="pt_bus" depart="15" departLane="best" from="4272734" to="298490969">
        <stop busStop="7005106863" duration="30"/>
    </trip>
    <trip id="5_train_S3:0" type="pt_train" depart="15" departLane="best" from="-26096354" to="86320760">
        <stop busStop="-1398732992" duration="30"/>
        <stop busStop="1002463599" duration="30"/>
    </trip>
    <trip id="8_bus_30:1" type="pt_bus" depart="27" departLane="best" from="72735197#0" to="-97686493">
        <stop busStop="1154423252" duration="30"/>
        <stop busStop="1485039517" duration="30"/>
        <stop busStop="7248262544" duration="30"/>
        <stop busStop="-1499118015" duration="30"/>
        <stop busStop="984024117" duration="30"/>
        <stop busStop="-984024066" duration="30"/>
        <stop busStop="-206372754" duration="30"/>
        <stop busStop="-7248262564" duration="30"/>
        <stop busStop="-1099807926" duration="30"/>
        <stop busStop="-1099877741" duration="30"/>
        <stop busStop="-1099877676" duration="30"/>
        <stop busStop="-311606391" duration="30"/>
        <stop busStop="-311606396" duration="30"/>
        <stop busStop="-206372726" duration="30"/>
        <stop busStop="-7248262568" duration="30"/>
        <stop busStop="-984024089" duration="30"/>
        <stop busStop="-7248262543" duration="30"/>
        <stop busStop="-282157840" duration="30"/>
        <stop busStop="466485605" duration="30"/>
    </trip>
    <trip id="9_bus_73:0" type="pt_bus" depart="28" departLane="best" from="-976088823#10" to="93752629">
        <stop busStop="-7271600096" duration="30"/>
        <stop busStop="206372888" duration="30"/>
        <stop busStop="1132161190" duration="30"/>
        <stop busStop="7271595869" duration="30"/>
        <stop busStop="984739213" duration="30"/>
        <stop busStop="7271595862" duration="30"/>
        <stop busStop="-984023532" duration="30"/>
        <stop busStop="27329561" duration="30"/>
        <stop busStop="598172359" duration="30"/>
    </trip>
    <trip id="10_bus_73:1" type="pt_bus" depart="34" departLane="best" from="93752629" to="97804873#2">
        <stop busStop="598172359" duration="30"/>
        <stop busStop="1165748197" duration="30"/>
        <stop busStop="1098133697" duration="30"/>
        <stop busStop="1103214919" duration="30"/>
        <stop busStop="984739213" duration="30"/>
        <stop busStop="206372908" duration="30"/>
        <stop busStop="7271600097" duration="30"/>
        <stop busStop="206372888" duration="30"/>
        <stop busStop="-984739274" duration="30"/>
    </trip>
    <trip id="11_bus_40:0" type="pt_bus" depart="38" departLane="best" from="39074639#0" to="-97686493">
        <stop busStop="7276082761" duration="30"/>
        <stop busStop="4420078769" duration="30"/>
        <stop busStop="1480899669" duration="30"/>
        <stop busStop="8073856017" duration="30"/>
        <stop busStop="8073840716" duration="30"/>
        <stop busStop="466485418" duration="30"/>
        <stop busStop="-984024089" duration="30"/>
        <stop busStop="-7248262543" duration="30"/>
        <stop busStop="-282157840" duration="30"/>
        <stop busStop="466485605" duration="30"/>
    </trip>
    <trip id="12_trolleybus_5:0" type="pt_trolleybus" depart="41" departLane="best" from="39074639#0" to="46822946">
        <stop busStop="7276082761" duration="30"/>
        <stop busStop="-4441508552" duration="30"/>
        <stop busStop="-7276028336" duration="30"/>
        <stop busStop="-7276082784" duration="30"/>
        <stop busStop="-7276028335" duration="30"/>
        <stop busStop="311287459" duration="30"/>
        <stop busStop="1096064553" duration="30"/>
        <stop busStop="28197903" duration="30"/>
        <stop busStop="598172345" duration="30"/>
        <stop busStop="598172343" duration="30"/>
        <stop busStop="-7272347245" duration="30"/>
        <stop busStop="1584421236" duration="30"/>
        <stop busStop="598161467" duration="30"/>
        <stop busStop="260019068" duration="30"/>
        <stop busStop="1402433083" duration="30"/>
        <stop busStop="1406220211" duration="30"/>
        <stop busStop="1485039419" duration="30"/>
        <stop busStop="598101628" duration="30"/>
    </trip>
    <trip id="13_trolleybus_2:0" type="pt_trolleybus" depart="47" departLane="best" from="39074639#0" to="94728342#1">
        <stop busStop="7276082761" duration="30"/>
        <stop busStop="-4441508552" duration="30"/>
        <stop busStop="-7276028336" duration="30"/>
        <stop busStop="-7276082784" duration="30"/>
        <stop busStop="-7276028335" duration="30"/>
        <stop busStop="311287459" duration="30"/>
        <stop busStop="1096064553" duration="30"/>
        <stop busStop="-260019054" duration="30"/>
        <stop busStop="-27329497" duration="30"/>
        <stop busStop="598172356" duration="30"/>
    </trip>
    <trip id="14_bus_16:0" type="pt_bus" depart="51" departLane="best" from="751559970#0" to="46822948">
        <stop busStop="336669906" duration="30"/>
        <stop busStop="336669876" duration="30"/>
        <stop busStop="-336706429" duration="30"/>
        <stop busStop="1406220211" duration="30"/>
        <stop busStop="1485039419" duration="30"/>
        <stop busStop="598101627" duration="30"/>
    </trip>
    <trip id="15_trolleybus_4:0" type="pt_trolleybus" depart="52" departLane="best" from="94727480#1" to="-97670448">
        <stop busStop="598172353" duration="30"/>
        <stop busStop="-7274331909" duration="30"/>
        <stop busStop="-472459433" duration="30"/>
        <stop busStop="984024081" duration="30"/>
        <stop busStop="1485039575" duration="30"/>
        <stop busStop="-7274331934" duration="30"/>
        <stop busStop="7274331199" duration="30"/>
        <stop busStop="1098191334" duration="30"/>
        <stop busStop="-436601443" duration="30"/>
    </trip>
    <trip id="16_trolleybus_6:0" type="pt_trolleybus" depart="54" departLane="best" from="98616629#3" to="705286358">
        <stop busStop="758982178" duration="30"/>
        <stop busStop="-758982163" duration="30"/>
        <stop busStop="-758982155" duration="30"/>
        <stop busStop="758982143" duration="30"/>
        <stop busStop="434635992" duration="30"/>
        <stop busStop="-206357913" duration="30"/>
        <stop busStop="665978819" duration="30"/>
        <stop busStop="2870822828" duration="30"/>
        <stop busStop="-1098133696" duration="30"/>
        <stop busStop="-984024077" duration="30"/>
        <stop busStop="-300652646" duration="30"/>
        <stop busStop="-984023532" duration="30"/>
        <stop busStop="1096064554" duration="30"/>
        <stop busStop="27329561" duration="30"/>
        <stop busStop="2117444912" duration="30"/>
        <stop busStop="-7274331909" duration="30"/>
        <stop busStop="-472459433" duration="30"/>
        <stop busStop="506671071" duration="30"/>
        <stop busStop="506672014" duration="30"/>
        <stop busStop="4439779319" duration="30"/>
        <stop busStop="-507051500" duration="30"/>
        <stop busStop="-507053070" duration="30"/>
        <stop busStop="507055481" duration="30"/>
    </trip>
    <trip id="17_bus_73:2" type="pt_bus" depart="55" departLane="best" from="-976088823#10" to="93752629">
        <stop busStop="-7271600096" duration="30"/>
        <stop busStop="206372888" duration="30"/>
        <stop busStop="1132161190" duration="30"/>
        <stop busStop="7271595869" duration="30"/>
        <stop busStop="984739213" duration="30"/>
        <stop busStop="7271595862" duration="30"/>
        <stop busStop="-984023532" duration="30"/>
        <stop busStop="27329561" duration="30"/>
        <stop busStop="598172359" duration="30"/>
    </trip>
    <trip id="18_train_IR_70:0" type="pt_train" depart="58" departLane="best" from="-834322750" to="194752640">
    </trip>
    <trip id="19_bus_72:0" type="pt_bus" depart="60" departLane="best" from="93752640" to="298490969">
        <stop busStop="598172367" duration="30"/>
        <stop busStop="1483240186" duration="30"/>
        <stop busStop="311606382" duration="30"/>
    </trip>
    <trip id="20_train_S77:0" type="pt_train" depart="65" departLane="best" from="101433223" to="194672511#1">
        <stop busStop="283223448" duration="30"/>
        <stop busStop="7908898589" duration="30"/>
    </trip>
    <trip id="21_train_S77:1" type="pt_train" depart="66" departLane="best" from="-834322754" to="-101433223">
        <stop busStop="-7908898589" duration="30"/>
        <stop busStop="-283223448" duration="30"/>
    </trip>
    <trip id="22_bus_25:0" type="pt_bus" depart="72" departLane="best" from="-142976777" to="98616633#2">
        <stop busStop="-984739343" duration="30"/>
        <stop busStop="-984739344" duration="30"/>
        <stop busStop="-984739319" duration="30"/>
        <stop busStop="-758982155" duration="30"/>
        <stop busStop="758982143" duration="30"/>
        <stop busStop="434635992" duration="30"/>
        <stop busStop="-206357913" duration="30"/>
        <stop busStop="665978819" duration="30"/>
    </trip>
    <trip id="23_bus_25:1" type="pt_bus" depart="77" departLane="best" from="98616633#2" to="142976777">
        <stop busStop="665978819" duration="30"/>
        <stop busStop="206357913" duration="30"/>
        <stop busStop="-434635992" duration="30"/>
        <stop busStop="-758982143" duration="30"/>
        <stop busStop="206357943" duration="30"/>
        <stop busStop="984739350" duration="30"/>
        <stop busStop="984739319" duration="30"/>
        <stop busStop="1140909292" duration="30"/>
    </trip>
    <trip id="24_bus_21:0" type="pt_bus" depart="91" departLane="best" from="-458346548#8" to="93752650">
        <stop busStop="-1057155639" duration="30"/>
        <stop busStop="-471106231" duration="30"/>
        <stop busStop="507053070" duration="30"/>
        <stop busStop="-506673090" duration="30"/>
        <stop busStop="-506671368" duration="30"/>
        <stop busStop="472459432" duration="30"/>
        <stop busStop="598172366" duration="30"/>
    </trip>
    <trip id="25_bus_21:1" type="pt_bus" depart="93" departLane="best" from="93752650" to="458346548#8">
        <stop busStop="598172366" duration="30"/>
        <stop busStop="-7274331909" duration="30"/>
        <stop busStop="506671071" duration="30"/>
        <stop busStop="4439779319" duration="30"/>
        <stop busStop="-507053070" duration="30"/>
        <stop busStop="206318587" duration="30"/>
        <stop busStop="1485039414" duration="30"/>
        <stop busStop="472459416" duration="30"/>
    </trip>
    <trip id="26_bus_20:0" type="pt_bus" depart="98" departLane="best" from="41984586#1" to="94602935">
        <stop busStop="8072044932" duration="30"/>
        <stop busStop="7272504536" duration="30"/>
        <stop busStop="598172341" duration="30"/>
        <stop busStop="-598172343" duration="30"/>
        <stop busStop="-260019054" duration="30"/>
        <stop busStop="-27329497" duration="30"/>
        <stop busStop="1098666350" duration="30"/>
    </trip>
    <trip id="27_bus_20:1" type="pt_bus" depart="102" departLane="best" from="94602935" to="41984586#0">
        <stop busStop="1098666350" duration="30"/>
        <stop busStop="472459430" duration="30"/>
        <stop busStop="28197903" duration="30"/>
        <stop busStop="598172343" duration="30"/>
        <stop busStop="-598172341" duration="30"/>
        <stop busStop="7272504536" duration="30"/>
        <stop busStop="82624475" duration="30"/>
    </trip>
    <trip id="28_bus_20:2" type="pt_bus" depart="107" departLane="best" from="94602935" to="41984586#0">
        <stop busStop="1098666350" duration="30"/>
        <stop busStop="472459430" duration="30"/>
        <stop busStop="28197903" duration="30"/>
        <stop busStop="598172343" duration="30"/>
        <stop busStop="-598172341" duration="30"/>
        <stop busStop="7272504536" duration="30"/>
        <stop busStop="82624475" duration="30"/>
    </trip>
    <trip id="29_bus_20:3" type="pt_bus" depart="119" departLane="best" from="41984586#1" to="94602935">
        <stop busStop="8072044932" duration="30"/>
        <stop busStop="7272504536" duration="30"/>
        <stop busStop="598172341" duration="30"/>
        <stop busStop="-598172343" duration="30"/>
        <stop busStop="-260019054" duration="30"/>
        <stop busStop="-27329497" duration="30"/>
        <stop busStop="1098666350" duration="30"/>
    </trip>
    <trip id="30_bus_9:0" type="pt_bus" depart="120" departLane="best" from="96095211" to="779101387#1">
        <stop busStop="984024084" duration="30"/>
        <stop busStop="-364790072" duration="30"/>
        <stop busStop="-357455545" duration="30"/>
        <stop busStop="-206372754" duration="30"/>
        <stop busStop="-7248262564" duration="30"/>
        <stop busStop="-984024083" duration="30"/>
        <stop busStop="311287459" duration="30"/>
        <stop busStop="1096064553" duration="30"/>
        <stop busStop="-260019054" duration="30"/>
        <stop busStop="-27329497" duration="30"/>
        <stop busStop="1099877607" duration="30"/>
    </trip>
    <trip id="31_bus_9:1" type="pt_bus" depart="125" departLane="best" from="779101387#1" to="96095211">
        <stop busStop="1099877607" duration="30"/>
        <stop busStop="472459430" duration="30"/>
        <stop busStop="1483240186" duration="30"/>
        <stop busStop="-984024152" duration="30"/>
        <stop busStop="311606382" duration="30"/>
        <stop busStop="984024083" duration="30"/>
        <stop busStop="984024323" duration="30"/>
        <stop busStop="1096064551" duration="30"/>
        <stop busStop="357455545" duration="30"/>
        <stop busStop="364790072" duration="30"/>
        <stop busStop="984024084" duration="30"/>
    </trip>
    <trip id="32_bus_14:0" type="pt_bus" depart="126" departLane="best" from="39401063#5" to="779101385">
        <stop busStop="1103214919" duration="30"/>
        <stop busStop="-303097162" duration="30"/>
        <stop busStop="-984739332" duration="30"/>
        <stop busStop="-984739217" duration="30"/>
        <stop busStop="-984739234" duration="30"/>
        <stop busStop="-984024118" duration="30"/>
        <stop busStop="-984023516" duration="30"/>
        <stop busStop="1098191319" duration="30"/>
        <stop busStop="1098191373" duration="30"/>
        <stop busStop="1483240181" duration="30"/>
        <stop busStop="1165748363" duration="30"/>
        <stop busStop="1483240183" duration="30"/>
        <stop busStop="27329561" duration="30"/>
        <stop busStop="6776962333" duration="30"/>
    </trip>
    <trip id="33_bus_14:1" type="pt_bus" depart="127" departLane="best" from="779101385" to="19802197#3">
        <stop busStop="6776962333" duration="30"/>
        <stop busStop="1165748197" duration="30"/>
        <stop busStop="1483240188" duration="30"/>
        <stop busStop="-1483240181" duration="30"/>
        <stop busStop="-984023828" duration="30"/>
        <stop busStop="-984024126" duration="30"/>
        <stop busStop="984023516" duration="30"/>
        <stop busStop="984024118" duration="30"/>
        <stop busStop="8072044973" duration="30"/>
        <stop busStop="8072044974" duration="30"/>
        <stop busStop="984739332" duration="30"/>
        <stop busStop="303097162" duration="30"/>
        <stop busStop="1103214919" duration="30"/>
    </trip>
    <trip id="34_bus_10:0" type="pt_bus" depart="131" departLane="best" from="94728202" to="97804889">
        <stop busStop="598172354" duration="30"/>
        <stop busStop="472459430" duration="30"/>
        <stop busStop="1483240186" duration="30"/>
        <stop busStop="984024292" duration="30"/>
        <stop busStop="866201064" duration="30"/>
        <stop busStop="866201060" duration="30"/>
        <stop busStop="-866201055" duration="30"/>
        <stop busStop="866201047" duration="30"/>
        <stop busStop="866201067" duration="30"/>
        <stop busStop="866206946" duration="30"/>
        <stop busStop="445336532" duration="30"/>
        <stop busStop="845290448" duration="30"/>
        <stop busStop="845290451" duration="30"/>
        <stop busStop="845290448" duration="30"/>
        <stop busStop="445336532" duration="30"/>
        <stop busStop="866206946" duration="30"/>
        <stop busStop="-308898923" duration="30"/>
        <stop busStop="-984014276" duration="30"/>
        <stop busStop="984014288" duration="30"/>
    </trip>
    <trip id="35_bus_10:1" type="pt_bus" depart="131" departLane="best" from="97804889" to="94728202">
        <stop busStop="984014288" duration="30"/>
        <stop busStop="984014276" duration="30"/>
        <stop busStop="308898923" duration="30"/>
        <stop busStop="1132161194" duration="30"/>
        <stop busStop="-866201047" duration="30"/>
        <stop busStop="866201055" duration="30"/>
        <stop busStop="-866201060" duration="30"/>
        <stop busStop="-866201064" duration="30"/>
        <stop busStop="-984024292" duration="30"/>
        <stop busStop="1096064553" duration="30"/>
        <stop busStop="-260019054" duration="30"/>
        <stop busStop="-27329497" duration="30"/>
        <stop busStop="598172354" duration="30"/>
    </trip>
    <trip id="36_bus_52:0" type="pt_bus" depart="132" departLane="best" from="93752648" to="298490969">
        <stop busStop="598172363" duration="30"/>
        <stop busStop="1483240186" duration="30"/>
        <stop busStop="311606382" duration="30"/>
    </trip>
    <trip id="37_bus_52:1" type="pt_bus" depart="133" departLane="best" from="394000861" to="93752648">
        <stop busStop="97765117" duration="30"/>
        <stop busStop="-260019054" duration="30"/>
        <stop busStop="598172363" duration="30"/>
    </trip>
    <trip id="38_bus_52:2" type="pt_bus" depart="134" departLane="best" from="93752648" to="298490969">
        <stop busStop="598172363" duration="30"/>
        <stop busStop="1483240186" duration="30"/>
        <stop busStop="311606382" duration="30"/>
    </trip>
    <trip id="39_bus_52:3" type="pt_bus" depart="136" departLane="best" from="394000861" to="93752648">
        <stop busStop="97765117" duration="30"/>
        <stop busStop="-260019054" duration="30"/>
        <stop busStop="598172363" duration="30"/>
    </trip>
    <trip id="40_bus_52:4" type="pt_bus" depart="137" departLane="best" from="394000861" to="93752648">
        <stop busStop="97765117" duration="30"/>
        <stop busStop="-260019054" duration="30"/>
        <stop busStop="598172363" duration="30"/>
    </trip>
    <trip id="41_bus_52:5" type="pt_bus" depart="138" departLane="best" from="93752648" to="298490969">
        <stop busStop="598172363" duration="30"/>
        <stop busStop="1483240186" duration="30"/>
        <stop busStop="311606382" duration="30"/>
    </trip>
    <trip id="42_bus_40:1" type="pt_bus" depart="139" departLane="best" from="39074639#0" to="-97686493">
        <stop busStop="7276082761" duration="30"/>
        <stop busStop="4420078769" duration="30"/>
        <stop busStop="1480899669" duration="30"/>
        <stop busStop="8073856017" duration="30"/>
        <stop busStop="8073840716" duration="30"/>
        <stop busStop="466485418" duration="30"/>
        <stop busStop="-984024089" duration="30"/>
        <stop busStop="-7248262543" duration="30"/>
        <stop busStop="-282157840" duration="30"/>
        <stop busStop="466485605" duration="30"/>
    </trip>
    <trip id="43_bus_40:2" type="pt_bus" depart="147" departLane="best" from="-97686493" to="-39074639#0">
        <stop busStop="-466485605" duration="30"/>
        <stop busStop="282157840" duration="30"/>
        <stop busStop="7248262542" duration="30"/>
        <stop busStop="271429291" duration="30"/>
        <stop busStop="-466485418" duration="30"/>
        <stop busStop="-984024222" duration="30"/>
        <stop busStop="-984024214" duration="30"/>
        <stop busStop="-1480899669" duration="30"/>
        <stop busStop="-4420078769" duration="30"/>
        <stop busStop="-7276082761" duration="30"/>
    </trip>
    <trip id="44_bus_71:0" type="pt_bus" depart="157" departLane="best" from="93752631" to="867036815#1">
        <stop busStop="598172365" duration="30"/>
        <stop busStop="28197903" duration="30"/>
        <stop busStop="-7272347245" duration="30"/>
        <stop busStop="260019068" duration="30"/>
    </trip>
    <trip id="45_bus_71:1" type="pt_bus" depart="158" departLane="best" from="46822946" to="93752631">
        <stop busStop="-260019068" duration="30"/>
        <stop busStop="598172339" duration="30"/>
        <stop busStop="-260019054" duration="30"/>
        <stop busStop="598172365" duration="30"/>
    </trip>
    <trip id="48_trolleybus_1:0" type="pt_trolleybus" depart="160" departLane="best" from="93752636" to="97690539">
        <stop busStop="598172362" duration="30"/>
        <stop busStop="1165748197" duration="30"/>
        <stop busStop="1483240184" duration="30"/>
        <stop busStop="308240450" duration="30"/>
        <stop busStop="7274196194" duration="30"/>
        <stop busStop="-7248262541" duration="30"/>
        <stop busStop="-7248262545" duration="30"/>
        <stop busStop="-1485039517" duration="30"/>
        <stop busStop="1485039516" duration="30"/>
    </trip>
    <trip id="49_trolleybus_1:1" type="pt_trolleybus" depart="160" departLane="best" from="97690539" to="93752636">
        <stop busStop="1485039516" duration="30"/>
        <stop busStop="1485039517" duration="30"/>
        <stop busStop="7248262544" duration="30"/>
        <stop busStop="-1356968579" duration="30"/>
        <stop busStop="-1483240187" duration="30"/>
        <stop busStop="1483240185" duration="30"/>
        <stop busStop="1483240183" duration="30"/>
        <stop busStop="27329561" duration="30"/>
        <stop busStop="598172362" duration="30"/>
    </trip>
    <trip id="50_bus_73:3" type="pt_bus" depart="160" departLane="best" from="-976088823#10" to="93752629">
        <stop busStop="-7271600096" duration="30"/>
        <stop busStop="206372888" duration="30"/>
        <stop busStop="1132161190" duration="30"/>
        <stop busStop="7271595869" duration="30"/>
        <stop busStop="984739213" duration="30"/>
        <stop busStop="7271595862" duration="30"/>
        <stop busStop="-984023532" duration="30"/>
        <stop busStop="27329561" duration="30"/>
        <stop busStop="598172359" duration="30"/>
    </trip>
    <trip id="51_bus_73:4" type="pt_bus" depart="165" departLane="best" from="93752629" to="97804873#2">
        <stop busStop="598172359" duration="30"/>
        <stop busStop="1165748197" duration="30"/>
        <stop busStop="1098133697" duration="30"/>
        <stop busStop="1103214919" duration="30"/>
        <stop busStop="984739213" duration="30"/>
        <stop busStop="206372908" duration="30"/>
        <stop busStop="7271600097" duration="30"/>
        <stop busStop="206372888" duration="30"/>
        <stop busStop="-984739274" duration="30"/>
    </trip>
    <trip id="52_bus_52:6" type="pt_bus" depart="166" departLane="best" from="394000861" to="93752648">
        <stop busStop="97765117" duration="30"/>
        <stop busStop="-260019054" duration="30"/>
        <stop busStop="598172363" duration="30"/>
    </trip>
    <trip id="53_bus_52:7" type="pt_bus" depart="173" departLane="best" from="93752648" to="298490969">
        <stop busStop="598172363" duration="30"/>
        <stop busStop="1483240186" duration="30"/>
        <stop busStop="311606382" duration="30"/>
    </trip>
    <trip id="55_train_S99:0" type="pt_train" depart="184" departLane="best" from="86320760" to="86320760">
        <stop busStop="1002463599" duration="30"/>
    </trip>
    <trip id="56_train_S99:1" type="pt_train" depart="187" departLane="best" from="28967633" to="86320760">
        <stop busStop="1002463599" duration="30"/>
    </trip>
    <trip id="57_train_S6:0" type="pt_train" depart="188" departLane="best" from="101433223" to="86320371">
        <stop busStop="283223448" duration="30"/>
        <stop busStop="1002465533" duration="30"/>
    </trip>
    <trip id="58_train_S6:1" type="pt_train" depart="189" departLane="best" from="-834322751" to="-101433223">
        <stop busStop="-1002465533" duration="30"/>
        <stop busStop="-283223448" duration="30"/>
    </trip>
    <trip id="61_bus_19:0" type="pt_bus" depart="202" departLane="best" from="93720120" to="93752639">
        <stop busStop="984024073" duration="30"/>
        <stop busStop="-371753766" duration="30"/>
        <stop busStop="984024323" duration="30"/>
        <stop busStop="1096064551" duration="30"/>
        <stop busStop="984024066" duration="30"/>
        <stop busStop="-984024117" duration="30"/>
        <stop busStop="-1356968579" duration="30"/>
        <stop busStop="-1483240187" duration="30"/>
        <stop busStop="1483240185" duration="30"/>
        <stop busStop="1483240183" duration="30"/>
        <stop busStop="27329561" duration="30"/>
        <stop busStop="1098666400" duration="30"/>
    </trip>
    <trip id="62_bus_19:1" type="pt_bus" depart="204" departLane="best" from="93752639" to="93720120">
        <stop busStop="1098666400" duration="30"/>
        <stop busStop="1165748197" duration="30"/>
        <stop busStop="1483240184" duration="30"/>
        <stop busStop="308240450" duration="30"/>
        <stop busStop="7274196194" duration="30"/>
        <stop busStop="-1499118015" duration="30"/>
        <stop busStop="984024117" duration="30"/>
        <stop busStop="-984024066" duration="30"/>
        <stop busStop="-206372754" duration="30"/>
        <stop busStop="-7248262564" duration="30"/>
        <stop busStop="371753766" duration="30"/>
        <stop busStop="984024073" duration="30"/>
    </trip>
    <trip id="63_train_VAE:0" type="pt_train" depart="218" departLane="best" from="-26096354" to="194672511#1">
        <stop busStop="-1398732992" duration="30"/>
        <stop busStop="7908898589" duration="30"/>
    </trip>
    <trip id="64_bus_72:1" type="pt_bus" depart="222" departLane="best" from="394000861" to="93752640">
        <stop busStop="97765117" duration="30"/>
        <stop busStop="-260019054" duration="30"/>
        <stop busStop="598172367" duration="30"/>
    </trip>
    <trip id="65_trolleybus_6:1" type="pt_trolleybus" depart="227" departLane="best" from="705286358" to="98616629#3">
        <stop busStop="507055481" duration="30"/>
        <stop busStop="507053070" duration="30"/>
        <stop busStop="507050408" duration="30"/>
        <stop busStop="-506673090" duration="30"/>
        <stop busStop="-506672767" duration="30"/>
        <stop busStop="-506671368" duration="30"/>
        <stop busStop="3715907112" duration="30"/>
        <stop busStop="472459432" duration="30"/>
        <stop busStop="598172352" duration="30"/>
        <stop busStop="1165748197" duration="30"/>
        <stop busStop="1098133697" duration="30"/>
        <stop busStop="984023532" duration="30"/>
        <stop busStop="300652646" duration="30"/>
        <stop busStop="7276059611" duration="30"/>
        <stop busStop="984023307" duration="30"/>
        <stop busStop="1485039604" duration="30"/>
        <stop busStop="665978819" duration="30"/>
        <stop busStop="-206357913" duration="30"/>